geometry optimzed in LAMMPS
_audit_creation_date              2020-12-01 
_audit_creation_method            'lammps2cif' 
_symmetry_space_group_name_H-M    'P1' 
_symmetry_Int_Tables_number       1 
_symmetry_cell_setting            triclinic 
loop_ 
_symmetry_equiv_pos_as_xyz 
  x,y,z 
_cell_length_a                    47.05679586 
_cell_length_b                    47.1047905955825 
_cell_length_c                    31.521354387416682 
_cell_angle_alpha                 89.9644417490555 
_cell_angle_beta                  90.68957551621274 
_cell_angle_gamma                 120.06447509170577 
loop_ 
_atom_site_label 
_atom_site_type_symbol 
_atom_site_fract_x 
_atom_site_fract_y 
_atom_site_fract_z 
_atom_site_charge 
Fe1        Fe  0.61457658  0.14100990  0.02963285     1.65800
Fe2        Fe  0.54529293  0.07425456  0.00027617     1.73200
Fe3        Fe  0.61796783  0.08426238  0.96841866     1.54400
O4          O  0.65691513  0.13196448  0.95685033    -0.81800
O5          O  0.55036057  0.03644659  0.02145433    -0.80100
O6          O  0.63654844  0.16373463  0.97454747    -0.84300
O7          O  0.65373643  0.13416799  0.04590691    -0.79100
O8          O  0.59508314  0.08525599  0.91317875    -0.80900
O9          O  0.54230872  0.08402912  0.06450293    -0.83700
C10         C  0.66119562  0.11158608  0.04463458     0.97100
C11         C  0.65876633  0.15989049  0.95807799     1.04500
O12         O  0.59251722  0.09996640  0.99945103    -1.12600
O13         O  0.53902866  0.11200302  0.97994417    -0.75100
O14         O  0.57862734  0.15344112  0.01697156    -0.78600
O15         O  0.64380367  0.08500404  0.02335968    -0.79200
C16         C  0.55304512  0.14126538  0.99340474     0.96000
O17         O  0.59329910  0.11961021  0.08590183    -0.77200
O18         O  0.54320484  0.06169864  0.93532549    -0.82400
C19         C  0.55471281  0.01997560  0.99380747     0.98600
C20         C  0.56432221  0.07108605  0.90555543     1.04600
O21         O  0.58087962  0.03362903  0.97196383    -0.78000
C22         C  0.56356720  0.09906371  0.09391720     1.02900
Fe23       Fe  0.51878287  0.13399576  0.53235222     1.65800
Fe24       Fe  0.52279860  0.06882282  0.50030041     1.73200
Fe25       Fe  0.46075576  0.08017996  0.46526908     1.54400
O26         O  0.43357167  0.07848955  0.51816285    -0.81800
O27         O  0.51594523  0.06104123  0.43357623    -0.80100
O28         O  0.47224714  0.12640751  0.54539446    -0.84300
O29         O  0.52161834  0.15940483  0.47872196    -0.79100
O30         O  0.44670219  0.02951850  0.46510554    -0.80900
O31         O  0.56814837  0.10772376  0.48634931    -0.83700
C32         C  0.49674654  0.15570458  0.45818986     0.97100
C33         C  0.44217780  0.10419078  0.54088627     1.04500
O34         O  0.50097231  0.09435671  0.49938320    -1.12600
O35         O  0.53172885  0.07425380  0.56625545    -0.75100
O36         O  0.51664909  0.10982615  0.58725679    -0.78600
O37         O  0.47028032  0.12816642  0.45550656    -0.79200
C38         C  0.52467354  0.08840050  0.59553880     0.96000
O39         O  0.56762195  0.14768360  0.52278203    -0.77200
O40         O  0.47901006  0.02949995  0.51531646    -0.82400
C41         C  0.50465831  0.07182126  0.40426445     0.98600
C42         C  0.45880101  0.01471789  0.48584646     1.04600
O43         O  0.48654375  0.08400600  0.41219539    -0.78000
C44         C  0.58238926  0.13696549  0.50005111     1.02900
Fe45       Fe  0.52094927  0.35477260  0.02809336     1.65800
Fe46       Fe  0.52475779  0.42477925  0.99926255     1.73200
Fe47       Fe  0.46171853  0.35178327  0.96494548     1.54400
O48         O  0.46970330  0.31240419  0.95432884    -0.81800
O49         O  0.48133001  0.42062356  0.01535926    -0.80100
O50         O  0.52185117  0.33244781  0.97305100    -0.84300
O51         O  0.47427168  0.31605788  0.04278722    -0.79100
O52         O  0.48727020  0.37361527  0.91158587    -0.80900
O53         O  0.53442468  0.42730678  0.06471419    -0.83700
C54         C  0.44425515  0.30891061  0.04063824     0.97100
C55         C  0.49587236  0.31074781  0.95497461     1.04500
O56         O  0.50270515  0.37735129  0.99773153    -1.12600
O57         O  0.56996335  0.43182937  0.98473590    -0.75100
O58         O  0.56969756  0.38994525  0.01719212    -0.78600
O59         O  0.43547988  0.32644286  0.01890980    -0.79200
C60         C  0.58453694  0.41693506  0.99725403     0.96000
O61         O  0.52096973  0.37655776  0.08410171    -0.77200
O62         O  0.51756570  0.42597802  0.93266471    -0.82400
C63         C  0.46168811  0.41628299  0.98562276     0.98600
C64         C  0.50611926  0.40379476  0.90346964     1.04600
O65         O  0.44864149  0.38923686  0.96512386    -0.78000
C66         C  0.52887831  0.40587960  0.09319179     1.02900
Fe67       Fe  0.62005549  0.44983657  0.52985549     1.65800
Fe68       Fe  0.54778063  0.44152878  0.50027831     1.73200
Fe69       Fe  0.61850999  0.50696064  0.46748100     1.54400
O70         O  0.64256461  0.53404030  0.52200644    -0.81800
O71         O  0.54565858  0.44837100  0.43412777    -0.80100
O72         O  0.65552298  0.49727849  0.54673412    -0.84300
O73         O  0.64421423  0.45163985  0.47559753    -0.79100
O74         O  0.57868281  0.51669229  0.46778726    -0.80900
O75         O  0.54452003  0.39797480  0.48441130    -0.83700
C76         C  0.66463285  0.47826443  0.45839399     0.97100
C77         C  0.66080360  0.52661126  0.54457105     1.04500
O78         O  0.59527596  0.46598911  0.49969038    -1.12600
O79         O  0.54600872  0.43252306  0.56556458    -0.75100
O80         O  0.59708298  0.44711555  0.58588814    -0.78600
O81         O  0.66042120  0.50289618  0.45749068    -0.79200
C82         C  0.56764989  0.43884040  0.59448320     0.96000
O83         O  0.58829941  0.40072399  0.51557007    -0.77200
O84         O  0.54772765  0.48308462  0.51684973    -0.82400
C85         C  0.56759310  0.46026130  0.40528279     0.98600
C86         C  0.55192346  0.50338582  0.48841071     1.04600
O87         O  0.59767721  0.48042526  0.41355523    -0.78000
C88         C  0.56173836  0.38520022  0.49426773     1.02900
Fe89       Fe  0.82993074  0.35412676  0.53506967     1.65800
Fe90       Fe  0.89763012  0.42339620  0.50925062     1.73200
Fe91       Fe  0.88713923  0.35027878  0.47635488     1.54400
O92         O  0.88670443  0.32532705  0.53150674    -0.81800
O93         O  0.90862886  0.42453231  0.44385428    -0.80100
O94         O  0.83748111  0.31576002  0.55291018    -0.84300
O95         O  0.80725590  0.33071588  0.47963287    -0.79100
O96         O  0.93793024  0.38755208  0.47947310    -0.80900
O97         O  0.86055437  0.43149133  0.49010345    -0.83700
C98         C  0.81153750  0.30855232  0.46370071     0.97100
C99         C  0.86014415  0.30834924  0.55236912     1.04500
O100        O  0.87128652  0.37609936  0.50679488    -1.12600
O101        O  0.88885184  0.42669420  0.57354026    -0.75100
O102        O  0.85035031  0.37648272  0.59217126    -0.78600
O103        O  0.83962804  0.31074385  0.46393866    -0.79200
C104        C  0.87180677  0.40576106  0.60172630     0.96000
O105        O  0.81742746  0.38941023  0.51973213    -0.77200
O106        O  0.93479313  0.41691894  0.53008664    -0.82400
C107        C  0.89885711  0.40293570  0.41403139     0.98600
C108        C  0.95123883  0.41386273  0.50150688     1.04600
O109        O  0.88538371  0.37234732  0.42149907    -0.78000
C110        C  0.83041776  0.41630290  0.49946908     1.02900
Fe111      Fe  0.83543439  0.45268057  0.04140610     1.65800
Fe112      Fe  0.89909596  0.44644155  0.00906282     1.73200
Fe113      Fe  0.89024832  0.51013524  0.97597475     1.54400
O114        O  0.84268494  0.50251947  0.96625767    -0.81800
O115        O  0.93899318  0.48942474  0.02592311    -0.80100
O116        O  0.81020680  0.45133002  0.98768893    -0.84300
O117        O  0.84464264  0.49969337  0.05603345    -0.79100
O118        O  0.88511716  0.48419115  0.92185727    -0.80900
O119        O  0.89330869  0.43663469  0.07420133    -0.83700
C120        C  0.86729481  0.52956881  0.05243353     0.97100
C121        C  0.81451528  0.47683132  0.96869427     1.04500
O122        O  0.87480398  0.46953983  0.00887563    -1.12600
O123        O  0.85958149  0.40199917  0.99377896    -0.75100
O124        O  0.82038519  0.40346101  0.03034837    -0.78600
O125        O  0.89281648  0.53771907  0.02983115    -0.79200
C126        C  0.83075143  0.38806229  0.00811431     0.96000
O127        O  0.85937377  0.45337059  0.09652422    -0.77200
O128        O  0.90675922  0.45350088  0.94266856    -0.82400
C129        C  0.95430406  0.50829512  0.99617111     0.98600
C130        C  0.89647873  0.46539753  0.91356664     1.04600
O131        O  0.94075115  0.52194658  0.97580321    -0.78000
C132        C  0.87978208  0.44375937  0.10400240     1.02900
Fe133      Fe  0.49561593  0.77965746  0.36443847     1.65800
Fe134      Fe  0.56226299  0.77800685  0.33396691     1.73200
Fe135      Fe  0.54887918  0.83849126  0.30037246     1.54400
O136        O  0.50014307  0.82871009  0.29156022    -0.81800
O137        O  0.60135279  0.82191402  0.35079820    -0.80100
O138        O  0.47050310  0.77660045  0.30993599    -0.84300
O139        O  0.50243562  0.82574784  0.37883754    -0.79100
O140        O  0.54464346  0.81269283  0.24678539    -0.80900
O141        O  0.55647237  0.76869499  0.39960920    -0.83700
C142        C  0.52479267  0.85583015  0.37647494     0.97100
C143        C  0.47265162  0.80207735  0.29368842     1.04500
O144        O  0.53565723  0.79857108  0.33321686    -1.12600
O145        O  0.52404571  0.73268909  0.31759052    -0.75100
O146        O  0.48321190  0.73129863  0.35376735    -0.78600
O147        O  0.55073917  0.86497829  0.35450322    -0.79200
C148        C  0.49482547  0.71758878  0.33057793     0.96000
O149        O  0.51956720  0.78220095  0.41974747    -0.77200
O150        O  0.57033860  0.78579757  0.26768579    -0.82400
C151        C  0.61564899  0.84164021  0.32130496     0.98600
C152        C  0.55866035  0.79628720  0.23848443     1.04600
O153        O  0.60004568  0.85275468  0.30004185    -0.78000
C154        C  0.54180360  0.77539113  0.42849658     1.02900
Fe155      Fe  0.49904562  0.68854032  0.86242640     1.65800
Fe156      Fe  0.56412330  0.75883983  0.83343139     1.73200
Fe157      Fe  0.55454583  0.68617054  0.79929114     1.54400
O158        O  0.55550782  0.66004771  0.85282897    -0.81800
O159        O  0.57324537  0.76069428  0.76742887    -0.80100
O160        O  0.50661444  0.64970942  0.87605350    -0.84300
O161        O  0.47520412  0.66723258  0.80703873    -0.79100
O162        O  0.60515178  0.72370380  0.80140656    -0.80900
O163        O  0.52477799  0.76411591  0.81715365    -0.83700
C164        C  0.47920762  0.64627351  0.78708677     0.97100
C165        C  0.52938661  0.64261324  0.87429602     1.04500
O166        O  0.53945004  0.71140483  0.83210217    -1.12600
O167        O  0.55677526  0.76109029  0.89877725    -0.75100
O168        O  0.52179436  0.70982135  0.91854877    -0.78600
O169        O  0.50676745  0.64727512  0.78681313    -0.79200
C170        C  0.54212034  0.73955974  0.92752018     0.96000
O171        O  0.48514912  0.72335236  0.85295115    -0.77200
O172        O  0.60441668  0.75615879  0.85034717    -0.82400
C173        C  0.56319977  0.73884577  0.73795486     0.98600
C174        C  0.61942682  0.75103799  0.82144785     1.04600
O175        O  0.55120024  0.70857269  0.74588678    -0.78000
C176        C  0.49578087  0.74916612  0.83090427     1.02900
Fe177      Fe  0.19241258  0.47517668  0.87529567     1.65800
Fe178      Fe  0.19651439  0.40934809  0.84511782     1.73200
Fe179      Fe  0.13389750  0.41938814  0.80990187     1.54400
O180        O  0.10721910  0.41728537  0.86354245    -0.81800
O181        O  0.18981649  0.40141425  0.77851434    -0.80100
O182        O  0.14538443  0.46573244  0.89063228    -0.84300
O183        O  0.19279188  0.49925107  0.82138648    -0.79100
O184        O  0.12110960  0.36900447  0.80925317    -0.80900
O185        O  0.24133957  0.44808576  0.83087112    -0.83700
C186        C  0.16723135  0.49468083  0.80188429     0.97100
C187        C  0.11551592  0.44267461  0.88687691     1.04500
O188        O  0.17457938  0.43478085  0.84358901    -1.12600
O189        O  0.20518034  0.41498196  0.91061701    -0.75100
O190        O  0.19320594  0.45304813  0.93110933    -0.78600
O191        O  0.14138121  0.46663921  0.79998658    -0.79200
C192        C  0.19980435  0.43060511  0.93949473     0.96000
O193        O  0.24123572  0.49014188  0.86232484    -0.77200
O194        O  0.15293753  0.37006298  0.86030077    -0.82400
C195        C  0.17778045  0.41122988  0.74898065     0.98600
C196        C  0.13439075  0.35516625  0.82952981     1.04600
O197        O  0.15968203  0.42354723  0.75647394    -0.78000
C198        C  0.25545626  0.47812864  0.84077400     1.02900
Fe199      Fe  0.27765958  0.47383106  0.36901140     1.65800
Fe200      Fe  0.20753339  0.40541214  0.34421627     1.73200
Fe201      Fe  0.27987356  0.41625100  0.30827939     1.54400
O202        O  0.31785750  0.46375018  0.29423505    -0.81800
O203        O  0.21372860  0.36772920  0.36308812    -0.80100
O204        O  0.29830370  0.49597488  0.31294344    -0.84300
O205        O  0.31766679  0.46780495  0.38395445    -0.79100
O206        O  0.25511039  0.41586065  0.25440303    -0.80900
O207        O  0.20690873  0.41510813  0.40906090    -0.83700
C208        C  0.32551997  0.44549960  0.38216745     0.97100
C209        C  0.31966863  0.49164022  0.29481017     1.04500
O210        O  0.25483064  0.43196037  0.34048910    -1.12600
O211        O  0.19908219  0.44227680  0.32646840    -0.75100
O212        O  0.24120010  0.48558832  0.35726991    -0.78600
O213        O  0.30758612  0.41845638  0.36198558    -0.79200
C214        C  0.21381785  0.47215683  0.33737651     0.96000
O215        O  0.25793018  0.45365909  0.42648338    -0.77200
O216        O  0.20371996  0.39348477  0.27875775    -0.82400
C217        C  0.21741322  0.35170843  0.33414029     0.98600
C218        C  0.22420832  0.40213681  0.24825757     1.04600
O219        O  0.24373241  0.36545874  0.31272036    -0.78000
C220        C  0.22898540  0.43228206  0.43675330     1.02900
Fe221      Fe  0.17873106  0.68503099  0.38336969     1.65800
Fe222      Fe  0.18560075  0.75542123  0.35032403     1.73200
Fe223      Fe  0.12030169  0.68300491  0.31860535     1.54400
O224        O  0.12527579  0.64160691  0.31124605    -0.81800
O225        O  0.14291295  0.75319757  0.36550306    -0.80100
O226        O  0.17693506  0.65897293  0.33053856    -0.84300
O227        O  0.13168632  0.64940493  0.40016753    -0.79100
O228        O  0.14603514  0.70221022  0.26419739    -0.80900
O229        O  0.19558950  0.76010612  0.41558834    -0.83700
C230        C  0.10205635  0.64324784  0.39731376     0.97100
C231        C  0.15017793  0.63787283  0.31331159     1.04500
O232        O  0.16187142  0.70796802  0.35086612    -1.12600
O233        O  0.22996232  0.75986754  0.33626239    -0.75100
O234        O  0.22776173  0.71732927  0.36956959    -0.78600
O235        O  0.09383940  0.66033211  0.37365306    -0.79200
C236        C  0.24322186  0.74348378  0.34810720     0.96000
O237        O  0.18091502  0.70975944  0.43801159    -0.77200
O238        O  0.17800053  0.75478770  0.28390899    -0.82400
C239        C  0.12432164  0.74977153  0.33484587     0.98600
C240        C  0.16578267  0.73215357  0.25540827     1.04600
O241        O  0.10983177  0.72224742  0.31552806    -0.78000
C242        C  0.18941015  0.73948906  0.44528436     1.02900
Fe243      Fe  0.27936786  0.78174548  0.88219501     1.65800
Fe244      Fe  0.20938724  0.77795781  0.85234305     1.73200
Fe245      Fe  0.28188528  0.84004144  0.81833935     1.54400
O246        O  0.30755480  0.86685619  0.87222760    -0.81800
O247        O  0.20737757  0.78530524  0.78602973    -0.80100
O248        O  0.31794975  0.82845277  0.89731729    -0.84300
O249        O  0.30144881  0.78025564  0.82775594    -0.79100
O250        O  0.24428286  0.85307717  0.81863373    -0.80900
O251        O  0.20282592  0.73322368  0.83602455    -0.83700
C252        C  0.32259686  0.80555774  0.80876641     0.97100
C253        C  0.32528407  0.85841470  0.89414901     1.04500
O254        O  0.25672697  0.79972251  0.85126984    -1.12600
O255        O  0.20700327  0.76789261  0.91756767    -0.75100
O256        O  0.25786164  0.78200157  0.93807205    -0.78600
O257        O  0.32122343  0.83185506  0.80790337    -0.79200
C258        C  0.22840821  0.77351684  0.94662264     0.96000
O259        O  0.24435078  0.73306656  0.86990605    -0.77200
O260        O  0.21415250  0.82152753  0.86945767    -0.82400
C261        C  0.22907693  0.79567575  0.75682767     0.98600
C262        C  0.21775146  0.84060102  0.83967359     1.04600
O263        O  0.25955272  0.81382475  0.76486639    -0.78000
C264        C  0.21810070  0.71880358  0.84763115     1.02900
Fe265      Fe  0.16685567  0.12000184  0.69662970     1.65800
Fe266      Fe  0.22869084  0.11159925  0.66356352     1.73200
Fe267      Fe  0.22280884  0.17762907  0.63317892     1.54400
O268        O  0.17553718  0.17084678  0.62308976    -0.81800
O269        O  0.26950700  0.15325137  0.68237506    -0.80100
O270        O  0.14262133  0.11917386  0.64230126    -0.84300
O271        O  0.17644161  0.16673653  0.71112721    -0.79100
O272        O  0.21791947  0.15267417  0.57814214    -0.80900
O273        O  0.22088722  0.09960636  0.72846152    -0.83700
C274        C  0.19926630  0.19652781  0.70883934     0.97100
C275        C  0.14717960  0.14527756  0.62487321     1.04500
O276        O  0.20624125  0.13637965  0.66462347    -1.12600
O277        O  0.18786230  0.06855036  0.64555501    -0.75100
O278        O  0.15119555  0.07098065  0.68659964    -0.78600
O279        O  0.22547417  0.20459693  0.68787119    -0.79200
C280        C  0.15988129  0.05526596  0.66242990     0.96000
O281        O  0.19027650  0.12013396  0.75154218    -0.77200
O282        O  0.23832170  0.12076808  0.59785057    -0.82400
C283        C  0.28557933  0.17351749  0.65408052     0.98600
C284        C  0.22903459  0.13379270  0.56909320     1.04600
O285        O  0.27277326  0.18821609  0.63440982    -0.78000
C286        C  0.20818646  0.10751820  0.75861593     1.02900
Fe287      Fe  0.16154971  0.01646147  0.19570384     1.65800
Fe288      Fe  0.22501520  0.08725835  0.16408628     1.73200
Fe289      Fe  0.21901405  0.01516051  0.13466201     1.54400
O290        O  0.22190179  0.99220710  0.19047097    -0.81800
O291        O  0.23393392  0.08688396  0.09839415    -0.80100
O292        O  0.17258071  0.98069611  0.21388728    -0.84300
O293        O  0.13781345  0.99059607  0.14208766    -0.79100
O294        O  0.26892973  0.05521430  0.13474409    -0.80900
O295        O  0.18474452  0.09035838  0.14617048    -0.83700
C296        C  0.14343983  0.96938396  0.12588423     0.97100
C297        C  0.19618765  0.97474519  0.21273257     1.04500
O298        O  0.20179407  0.03976207  0.16498113    -1.12600
O299        O  0.21811153  0.09186523  0.22885982    -0.75100
O300        O  0.18351227  0.04125068  0.25087866    -0.78600
O301        O  0.17228385  0.97336164  0.12503792    -0.79200
C302        C  0.20390950  0.07122234  0.25857253     0.96000
O303        O  0.14495438  0.04861562  0.18064752    -0.77200
O304        O  0.26608269  0.08682900  0.18283497    -0.82400
C305        C  0.22468207  0.06440079  0.06986803     0.98600
C306        C  0.28198254  0.08278315  0.15427326     1.04600
O307        O  0.21375065  0.03441027  0.07907239    -0.78000
C308        C  0.15525685  0.07417203  0.15806180     1.02900
Fe309      Fe  0.94049718  0.80137062  0.72067924     1.65800
Fe310      Fe  0.87243652  0.73530331  0.68633695     1.73200
Fe311      Fe  0.94639464  0.75056743  0.65089519     1.54400
O312        O  0.98301292  0.79954638  0.64227061    -0.81800
O313        O  0.87991556  0.69776306  0.70083275    -0.80100
O314        O  0.96183647  0.82874857  0.66819107    -0.84300
O315        O  0.98122237  0.79613180  0.73255602    -0.79100
O316        O  0.92272197  0.75350658  0.59785225    -0.80900
O317        O  0.86915782  0.73988696  0.75199736    -0.83700
C318        C  0.99026830  0.77500810  0.72702541     0.97100
C319        C  0.98305531  0.82647659  0.64647551     1.04500
O320        O  0.91966017  0.76260649  0.68576111    -1.12600
O321        O  0.86439981  0.77304942  0.67264084    -0.75100
O322        O  0.90323855  0.81262842  0.71263233    -0.78600
O323        O  0.97355022  0.74955736  0.70351352    -0.79200
C324        C  0.87817626  0.80168553  0.68821829     0.96000
O325        O  0.91990816  0.77510210  0.77448463    -0.77200
O326        O  0.87062485  0.72792288  0.61973154    -0.82400
C327        C  0.88435309  0.68392953  0.66985538     0.98600
C328        C  0.89202187  0.73926898  0.59025303     1.04600
O329        O  0.91115820  0.69927816  0.64958669    -0.78000
C330        C  0.89052980  0.75311758  0.78173962     1.02900
Fe331      Fe  0.85515649  0.80517840  0.20996489     1.65800
Fe332      Fe  0.85675915  0.73694609  0.18527738     1.73200
Fe333      Fe  0.79488373  0.74776403  0.14781881     1.54400
O334        O  0.76924233  0.74927432  0.20109530    -0.81800
O335        O  0.84868955  0.72589596  0.11980938    -0.80100
O336        O  0.80891324  0.79803355  0.22525887    -0.84300
O337        O  0.85555409  0.82773309  0.15442120    -0.79100
O338        O  0.78054775  0.69675400  0.15077157    -0.80900
O339        O  0.90229648  0.77414845  0.16866607    -0.83700
C340        C  0.83002430  0.82319910  0.13482218     0.97100
C341        C  0.77860052  0.77588697  0.22236869     1.04500
O342        O  0.83591075  0.76345601  0.18105667    -1.12600
O343        O  0.86650821  0.74529422  0.25034553    -0.75100
O344        O  0.85607143  0.78499198  0.26762608    -0.78600
O345        O  0.80381283  0.79532803  0.13407672    -0.79200
C346        C  0.86204409  0.76240826  0.27795510     0.96000
O347        O  0.90334960  0.81798556  0.19634827    -0.77200
O348        O  0.81261540  0.69920659  0.20221949    -0.82400
C349        C  0.83671137  0.73453401  0.08898068     0.98600
C350        C  0.79408742  0.68343878  0.17176626     1.04600
O351        O  0.81957124  0.74824706  0.09462216    -0.78000
C352        C  0.91703742  0.80464396  0.17641244     1.02900
Fe353      Fe  0.85967335  0.02749171  0.70579192     1.65800
Fe354      Fe  0.86037875  0.09495772  0.67354583     1.73200
Fe355      Fe  0.80085170  0.02086065  0.63827606     1.54400
O356        O  0.81321198  0.98415678  0.62816473    -0.81800
O357        O  0.81617753  0.08832488  0.69069025    -0.80100
O358        O  0.86454040  0.00652938  0.65206288    -0.84300
O359        O  0.81400158  0.98635277  0.71768578    -0.79100
O360        O  0.82591602  0.04426804  0.58508395    -0.80900
O361        O  0.87156829  0.09886046  0.73872814    -0.83700
C362        C  0.78360994  0.97721090  0.71316840     0.97100
C363        C  0.84013508  0.98393989  0.63232173     1.04500
O364        O  0.84042104  0.04785598  0.67256526    -1.12600
O365        O  0.90528939  0.10229793  0.65696084    -0.75100
O366        O  0.90802263  0.06525243  0.69788895    -0.78600
O367        O  0.77421539  0.99393062  0.69093756    -0.79200
C368        C  0.92112176  0.08973226  0.67310725     0.96000
O369        O  0.85535347  0.04807525  0.76043448    -0.77200
O370        O  0.85153631  0.09636220  0.60765590    -0.82400
C371        C  0.79608799  0.08286674  0.66100086     0.98600
C372        C  0.84092427  0.07487311  0.57778326     1.04600
O373        O  0.78473812  0.05618643  0.63967048    -0.78000
C374        C  0.86429160  0.07781828  0.76823016     1.02900
Fe375      Fe  0.94527505  0.11309096  0.20578523     1.65800
Fe376      Fe  0.87580921  0.10916458  0.17332785     1.73200
Fe377      Fe  0.94917781  0.17288360  0.14358494     1.54400
O378        O  0.97413011  0.19815631  0.19883324    -0.81800
O379        O  0.87509117  0.11887010  0.10803646    -0.80100
O380        O  0.98394195  0.15922643  0.22279003    -0.84300
O381        O  0.96843150  0.11234283  0.15208463    -0.79100
O382        O  0.91203481  0.18628533  0.14535338    -0.80900
O383        O  0.87074958  0.06513873  0.15445815    -0.83700
C384        C  0.98906307  0.13750824  0.13226280     0.97100
C385        C  0.99109999  0.18914965  0.22131171     1.04500
O386        O  0.92328307  0.13157720  0.17427179    -1.12600
O387        O  0.87180929  0.09754085  0.23811579    -0.75100
O388        O  0.92262648  0.11328565  0.26065829    -0.78600
O389        O  0.98801820  0.16402971  0.13206072    -0.79200
C390        C  0.89293688  0.10469024  0.26799709     0.96000
O391        O  0.91045653  0.06445032  0.19222405    -0.77200
O392        O  0.87893373  0.15175897  0.19230485    -0.82400
C393        C  0.89704200  0.13150656  0.07939007     0.98600
C394        C  0.88458737  0.17290385  0.16444614     1.04600
O395        O  0.92745430  0.14917032  0.08822824    -0.78000
C396        C  0.88564492  0.05059277  0.16736459     1.02900
C397        C  0.87162232  0.12610631  0.86909613    -0.27700
C398        C  0.87013510  0.10422306  0.90045668     0.01900
C399        C  0.86652404  0.07390467  0.88814710     0.30000
C400        C  0.86455253  0.06583442  0.84521740    -0.19500
C401        C  0.86640996  0.08772870  0.81347103    -0.28900
C402        C  0.86966251  0.11805250  0.82589292     0.44000
C403        C  0.87466805  0.11375637  0.94587932     0.05200
O404        O  0.86570955  0.05223580  0.91789082    -0.57400
H405        H  0.86207605  0.04238352  0.83687943     0.18100
O406        O  0.87106410  0.14005763  0.79630182    -0.64100
H407        H  0.87438153  0.14954726  0.87816974     0.16600
C408        C  0.90394340  0.14117926  0.96018189     0.28800
C409        C  0.91022170  0.14709715  0.00364428    -0.25000
C410        C  0.88751934  0.12613089  0.03375814    -0.24300
C411        C  0.85726738  0.09976378  0.01929510     0.40300
C412        C  0.85117652  0.09362250  0.97564315    -0.26800
O413        O  0.92767790  0.16091265  0.93201484    -0.58700
H414        H  0.93348117  0.16783109  0.01372682     0.15900
O415        O  0.83433706  0.07868225  0.04733244    -0.60100
H416        H  0.82843326  0.07248158  0.96497503     0.14400
H417        H  0.84792260  0.13426657  0.79125313     0.46200
H418        H  0.92534363  0.18060366  0.92893975     0.41600
H419        H  0.81940588  0.08753589  0.05183056     0.45100
H420        H  0.88903505  0.05900808  0.92364664     0.36500
C421        C  0.84589412  0.10047263  0.36832503    -0.27700
C422        C  0.86866695  0.10415620  0.40023731     0.01900
C423        C  0.89901683  0.10776687  0.38833300     0.30000
C424        C  0.90611898  0.10747076  0.34542417    -0.19500
C425        C  0.88341710  0.10361105  0.31322406    -0.28900
C426        C  0.85300915  0.10020002  0.32519678     0.44000
C427        C  0.85921745  0.10017906  0.44566685     0.05200
O428        O  0.92105129  0.10936443  0.41851243    -0.57400
H429        H  0.92958221  0.10991945  0.33751589     0.18100
O430        O  0.83026642  0.09714937  0.29521762    -0.64100
H431        H  0.82230021  0.09741418  0.37694039     0.16600
C432        C  0.87929517  0.12292966  0.47724589     0.28800
C433        C  0.87253617  0.11528746  0.52039236    -0.25000
C434        C  0.84561494  0.08519686  0.53263388    -0.24300
C435        C  0.82390090  0.06400563  0.50082376     0.40300
C436        C  0.83092449  0.07146375  0.45797974    -0.26800
O437        O  0.90608722  0.15223799  0.46631672    -0.58700
H438        H  0.88907877  0.13232864  0.54419050     0.15900
O439        O  0.79608313  0.03533839  0.51115888    -0.60100
H440        H  0.81486120  0.05394351  0.43424152     0.14400
H441        H  0.81505035  0.07320696  0.29209431     0.46200
H442        H  0.89728341  0.16702435  0.45999930     0.41600
H443        H  0.77888641  0.04140758  0.51478048     0.45100
H444        H  0.93989006  0.13210283  0.41726807     0.36500
C445        C  0.86520061  0.90959459  0.09747510    -0.27700
C446        C  0.84246330  0.91722977  0.11456293     0.01900
C447        C  0.81203052  0.89175504  0.12862039     0.30000
C448        C  0.80604537  0.85944372  0.12953026    -0.19500
C449        C  0.83053957  0.85249884  0.11732537    -0.28900
C450        C  0.85936215  0.87742616  0.09865374     0.44000
C451        C  0.85360870  0.95155300  0.12670088     0.05200
O452        O  0.78933994  0.89867044  0.14521687    -0.57400
H453        H  0.78384830  0.84063252  0.14423793     0.18100
O454        O  0.88341182  0.87122599  0.08546071    -0.64100
H455        H  0.88870807  0.92905262  0.08658587     0.16600
C456        C  0.87293316  0.96464445  0.16364412     0.28800
C457        C  0.88287451  0.99667482  0.17658885    -0.25000
C458        C  0.87400840  0.01640823  0.15298202    -0.24300
C459        C  0.85512788  0.00339450  0.11525678     0.40300
C460        C  0.84481606  0.97102790  0.10262488    -0.26800
O461        O  0.88147371  0.94585670  0.18800166    -0.58700
H462        H  0.89741586  0.00598604  0.20546131     0.15900
O463        O  0.84694144  0.02211277  0.09020042    -0.60100
H464        H  0.83015964  0.96120287  0.07392724     0.14400
H465        H  0.87607350  0.86104208  0.05695938     0.46200
H466        H  0.90287826  0.95012068  0.17687736     0.41600
H467        H  0.86558774  0.03375294  0.07056304     0.45100
H468        H  0.79456419  0.90219156  0.17601594     0.36500
C469        C  0.87517417  0.92831753  0.62153398    -0.27700
C470        C  0.84699006  0.89797490  0.62839940     0.01900
C471        C  0.81592576  0.89531286  0.62603991     0.30000
C472        C  0.81358027  0.92366551  0.62179122    -0.19500
C473        C  0.84210283  0.95471659  0.62008356    -0.28900
C474        C  0.87297203  0.95665736  0.61728413     0.44000
C475        C  0.85098920  0.87090759  0.64467829     0.05200
O476        O  0.78803765  0.86569776  0.63234298    -0.57400
H477        H  0.78964313  0.92156254  0.62409711     0.18100
O478        O  0.90126948  0.98636654  0.61301556    -0.64100
H479        H  0.89917035  0.93036881  0.62252389     0.16600
C480        C  0.84531959  0.84431257  0.61882330     0.28800
C481        C  0.85245418  0.82071994  0.63440128    -0.25000
C482        C  0.86580956  0.82372061  0.67548651    -0.24300
C483        C  0.87008452  0.84971588  0.70188513     0.40300
C484        C  0.86275447  0.87310524  0.68633205    -0.26800
O485        O  0.83400498  0.84186132  0.57792690    -0.58700
H486        H  0.84915335  0.80100646  0.61349326     0.15900
O487        O  0.88209969  0.85292960  0.74253268    -0.60100
H488        H  0.86695317  0.89350799  0.70651891     0.14400
H489        H  0.91234280  0.99132259  0.64124488     0.46200
H490        H  0.85399311  0.85377846  0.56051836     0.41600
H491        H  0.86256401  0.83945717  0.76015585     0.45100
H492        H  0.78084886  0.85595647  0.60360389     0.36500
C493        C  0.84297928  0.70864474  0.88086430    -0.27700
C494        C  0.86520495  0.72783275  0.91314353     0.01900
C495        C  0.89621299  0.75389754  0.90190072     0.30000
C496        C  0.90410648  0.76124406  0.85921955    -0.19500
C497        C  0.88139411  0.74316573  0.82665618    -0.28900
C498        C  0.85083890  0.71602779  0.83795601     0.44000
C499        C  0.85480240  0.72345650  0.95809572     0.05200
O500        O  0.91856567  0.77332888  0.93243897    -0.57400
H501        H  0.92794621  0.78192312  0.85178929     0.18100
O502        O  0.82816546  0.69692235  0.80756646    -0.64100
H503        H  0.81912474  0.68827875  0.88899201     0.16600
C504        C  0.82751290  0.72622720  0.96961984     0.28800
C505        C  0.82148669  0.72864821  0.01233461    -0.25000
C506        C  0.84218447  0.72816509  0.04453904    -0.24300
C507        C  0.86821380  0.72304819  0.03314350     0.40300
C508        C  0.87432238  0.72073075  0.99016898    -0.26800
O509        O  0.80813107  0.72935343  0.93927036    -0.58700
H510        H  0.80092761  0.73190265  0.02010587     0.15900
O511        O  0.88863387  0.72161657  0.06341826    -0.60100
H512        H  0.89519174  0.71816627  0.98178971     0.14400
H513        H  0.83308447  0.67922528  0.80117478     0.46200
H514        H  0.78800753  0.70746621  0.93736115     0.41600
H515        H  0.90659841  0.74460640  0.06746769     0.45100
H516        H  0.91310509  0.79065323  0.93879231     0.36500
C517        C  0.89323639  0.73296075  0.47051322    -0.27700
C518        C  0.86777968  0.73847558  0.45793849     0.01900
C519        C  0.84784134  0.74081444  0.48923309     0.30000
C520        C  0.85457909  0.73913746  0.53252714    -0.19500
C521        C  0.88152614  0.73581870  0.54504421    -0.28900
C522        C  0.90018787  0.73163586  0.51345328     0.44000
C523        C  0.86407151  0.74380510  0.41219168     0.05200
O524        O  0.82169995  0.74455093  0.47770780    -0.57400
H525        H  0.83966622  0.74193118  0.55624300     0.18100
O526        O  0.92590474  0.72699536  0.52419234    -0.64100
H527        H  0.90860369  0.73083495  0.44685690     0.16600
C528        C  0.86984640  0.77450579  0.39772406     0.28800
C529        C  0.86916242  0.78016606  0.35415957    -0.25000
C530        C  0.86329073  0.75571251  0.32400620    -0.24300
C531        C  0.85733379  0.72484908  0.33866632     0.40300
C532        C  0.85802341  0.71924175  0.38232482    -0.26800
O533        O  0.87714130  0.79951369  0.42586995    -0.58700
H534        H  0.87383116  0.80407426  0.34394248     0.15900
O535        O  0.85052492  0.69983977  0.31075665    -0.60100
H536        H  0.85387015  0.69559602  0.39296138     0.14400
H537        H  0.91591383  0.70301559  0.52837205     0.46200
H538        H  0.90116216  0.81013881  0.43106376     0.41600
H539        H  0.82636647  0.68828325  0.30638232     0.45100
H540        H  0.82847419  0.76760757  0.48484315     0.36500
C541        C  0.07779429  0.07958723  0.14343183    -0.27700
C542        C  0.08900112  0.10755838  0.11800193     0.01900
C543        C  0.12207631  0.12461903  0.10591111     0.30000
C544        C  0.14337105  0.11360683  0.11929034    -0.19500
C545        C  0.13214978  0.08543914  0.14474070    -0.28900
C546        C  0.09879178  0.06826007  0.15637058     0.44000
C547        C  0.06609511  0.11955799  0.10756363     0.05200
O548        O  0.13386393  0.15215093  0.08128229    -0.57400
H549        H  0.16876629  0.12724245  0.10960051     0.18100
O550        O  0.08640937  0.04074099  0.18112505    -0.64100
H551        H  0.05262733  0.06669635  0.15412697     0.16600
C552        C  0.03437309  0.09772872  0.09165782     0.28800
C553        C  0.00977275  0.10596029  0.09441324    -0.25000
C554        C  0.01641982  0.13576400  0.11297616    -0.24300
C555        C  0.04908172  0.15945716  0.12311692     0.40300
C556        C  0.07372010  0.15113271  0.12071044    -0.26800
O557        O  0.02687946  0.06759363  0.07570893    -0.58700
H558        H  0.98478861  0.08775305  0.08570396     0.15900
O559        O  0.05636856  0.18891687  0.14099715    -0.60100
H560        H  0.09804096  0.16825251  0.13293469     0.14400
H561        H  0.07717288  0.02204061  0.16084021     0.46200
H562        H  0.01175569  0.05125971  0.09637245     0.41600
H563        H  0.06082693  0.20388851  0.11669029     0.45100
H564        H  0.13042122  0.14401871  0.05159449     0.36500
C565        C  0.07452753  0.88342055  0.13714091    -0.27700
C566        C  0.04962173  0.88529234  0.11455028     0.01900
C567        C  0.05829776  0.91183940  0.08687441     0.30000
C568        C  0.09055650  0.93820409  0.08686297    -0.19500
C569        C  0.11467923  0.93794722  0.11314628    -0.28900
C570        C  0.10700035  0.90944589  0.13630736     0.44000
C571        C  0.01491741  0.86387388  0.12703817     0.05200
O572        O  0.03478756  0.91367099  0.06284201    -0.57400
H573        H  0.09615058  0.95997720  0.06888992     0.18100
O574        O  0.12981554  0.90878097  0.16314092    -0.64100
H575        H  0.06833247  0.86333375  0.15878973     0.16600
C576        C  0.99983801  0.82947605  0.12723976     0.28800
C577        C  0.96809017  0.81049981  0.14348813    -0.25000
C578        C  0.95106390  0.82537016  0.16046243    -0.24300
C579        C  0.96626967  0.85992084  0.15957605     0.40300
C580        C  0.99773204  0.87868345  0.14299410    -0.26800
O581        O  0.01557126  0.81422952  0.11057443    -0.58700
H582        H  0.95687956  0.78403653  0.14289767     0.15900
O583        O  0.95041545  0.87575723  0.17383486    -0.60100
H584        H  0.00913396  0.90517831  0.14356708     0.14400
H585        H  0.14127135  0.90016678  0.14573828     0.46200
H586        H  0.02287127  0.80644839  0.13538640     0.41600
H587        H  0.95852812  0.88257339  0.20335319     0.45100
H588        H  0.03179493  0.90016805  0.03724391     0.36500
C589        C  0.08933731  0.96867493  0.67426279    -0.27700
C590        C  0.08927684  0.95513161  0.63474525     0.01900
C591        C  0.11312726  0.97398574  0.60477747     0.30000
C592        C  0.13659523  0.00653704  0.61437406    -0.19500
C593        C  0.13634498  0.02043880  0.65374089    -0.28900
C594        C  0.11269692  0.00103968  0.68400782     0.44000
C595        C  0.06375817  0.92116264  0.62590229     0.05200
O596        O  0.11301844  0.96113503  0.56572470    -0.57400
H597        H  0.15447989  0.02114506  0.59067396     0.18100
O598        O  0.11218339  0.01340778  0.72321464    -0.64100
H599        H  0.07110482  0.95401988  0.69760952     0.16600
C600        C  0.06919228  0.89521418  0.63603231     0.28800
C601        C  0.04262408  0.86318565  0.63759211    -0.25000
C602        C  0.01053502  0.85706726  0.63044230    -0.24300
C603        C  0.00551042  0.88279699  0.61712465     0.40300
C604        C  0.03219161  0.91467314  0.61466271    -0.26800
O605        O  0.09995955  0.90128581  0.64753855    -0.58700
H606        H  0.04679788  0.84372331  0.64847289     0.15900
O607        O  0.97444956  0.87717294  0.60836998    -0.60100
H608        H  0.02794035  0.93467224  0.60689706     0.14400
H609        H  0.12791788  0.01023239  0.74094463     0.46200
H610        H  0.10126511  0.90426916  0.67879356     0.41600
H611        H  0.96825456  0.88547164  0.63347847     0.45100
H612        H  0.12644430  0.95045246  0.56949267     0.36500
C613        C  0.23898245  0.08517320  0.85919809    -0.27700
C614        C  0.22172464  0.09124511  0.89063990     0.01900
C615        C  0.20000626  0.10216482  0.87835849     0.30000
C616        C  0.19625202  0.10747358  0.83559485    -0.19500
C617        C  0.21351183  0.10161584  0.80376816    -0.28900
C618        C  0.23491906  0.09008997  0.81607100     0.44000
C619        C  0.22548513  0.08531345  0.93613248     0.05200
O620        O  0.18184185  0.10725781  0.90794146    -0.57400
H621        H  0.17930130  0.11591964  0.82745528     0.18100
O622        O  0.25243444  0.08408429  0.78651090    -0.64100
H623        H  0.25575854  0.07667923  0.86814271     0.16600
C624        C  0.21893963  0.05426994  0.94999625     0.28800
C625        C  0.21968763  0.04829304  0.99334622    -0.25000
C626        C  0.22659599  0.07281929  0.02398234    -0.24300
C627        C  0.23401461  0.10423160  0.00986792     0.40300
C628        C  0.23353569  0.11023827  0.96634037    -0.26800
O629        O  0.21072934  0.02922792  0.92152714    -0.58700
H630        H  0.21410570  0.02396132  0.00290625     0.15900
O631        O  0.24132057  0.12916272  0.03812865    -0.60100
H632        H  0.23887958  0.13436782  0.95612193     0.14400
H633        H  0.23888487  0.06036060  0.77975396     0.46200
H634        H  0.18651519  0.01827762  0.91819084     0.41600
H635        H  0.22000669  0.12776951  0.04407565     0.45100
H636        H  0.16194695  0.08550552  0.91194393     0.36500
C637        C  0.20487829  0.07024828  0.37982512    -0.27700
C638        C  0.22558943  0.10340853  0.38983154     0.01900
C639        C  0.23993568  0.12609323  0.35661763     0.30000
C640        C  0.23294120  0.11541719  0.31411770    -0.19500
C641        C  0.21142185  0.08217329  0.30390640    -0.28900
C642        C  0.19779635  0.05952006  0.33764025     0.44000
C643        C  0.23000510  0.11380072  0.43510617     0.05200
O644        O  0.26154958  0.15853038  0.36548064    -0.57400
H645        H  0.24432616  0.13331725  0.28916796     0.18100
O646        O  0.17716949  0.02671845  0.33004556    -0.64100
H647        H  0.19353137  0.05252364  0.40500546     0.16600
C648        C  0.21934793  0.13513030  0.44937571     0.28800
C649        C  0.22010096  0.14187597  0.49267937    -0.25000
C650        C  0.23091916  0.12726225  0.52310226    -0.24300
C651        C  0.24218426  0.10627774  0.50863585     0.40300
C652        C  0.24159703  0.09969513  0.46501879    -0.26800
O653        O  0.20681639  0.14851520  0.42140357    -0.58700
H654        H  0.21124939  0.15809535  0.50238815     0.15900
O655        O  0.25362659  0.09189362  0.53661413    -0.60100
H656        H  0.24967385  0.08301301  0.45452301     0.14400
H657        H  0.19158031  0.01696940  0.33067864     0.46200
H658        H  0.18317642  0.13194440  0.41832855     0.41600
H659        H  0.23435529  0.07015981  0.54291200     0.45100
H660        H  0.25015609  0.17050041  0.35654587     0.36500
C661        C  0.01239971  0.12073266  0.67895182    -0.27700
C662        C  0.02085962  0.12777193  0.63611498     0.01900
C663        C  0.99666275  0.12303199  0.60593818     0.30000
C664        C  0.96438915  0.11138943  0.61875353    -0.19500
C665        C  0.95569445  0.10357584  0.66142162    -0.28900
C666        C  0.97992433  0.10830483  0.69165449     0.44000
C667        C  0.05436780  0.13717810  0.62307545     0.05200
O668        O  0.00419139  0.12897458  0.56378544    -0.57400
H669        H  0.94586824  0.10752114  0.59508169     0.18100
O670        O  0.97225284  0.10162216  0.73368630    -0.64100
H671        H  0.03085894  0.12396046  0.70236231     0.16600
C672        C  0.08168658  0.16594290  0.63888439     0.28800
C673        C  0.11330379  0.17095110  0.63320983    -0.25000
C674        C  0.11771847  0.14677581  0.61346814    -0.24300
C675        C  0.09061036  0.11935319  0.59463857     0.40300
C676        C  0.05914021  0.11494132  0.59900273    -0.26800
O677        O  0.07751832  0.18838179  0.66165902    -0.58700
H678        H  0.13391536  0.19192318  0.64840613     0.15900
O679        O  0.09451318  0.09575934  0.57438416    -0.60100
H680        H  0.03821039  0.09277306  0.58657553     0.14400
H681        H  0.96925705  0.07944781  0.73816584     0.46200
H682        H  0.08052279  0.18434374  0.69183237     0.41600
H683        H  0.08714228  0.07746374  0.59484926     0.45100
H684        H  0.01281231  0.15282046  0.56024690     0.36500
C685        C  0.14970589  0.83481349  0.76671203    -0.27700
C686        C  0.12281121  0.82110743  0.79434625     0.01900
C687        C  0.12891680  0.81928765  0.83782727     0.30000
C688        C  0.16085628  0.82932070  0.85256631    -0.19500
C689        C  0.18763846  0.84116113  0.82479158    -0.28900
C690        C  0.18189291  0.84491649  0.78157130     0.44000
C691        C  0.08841766  0.80820568  0.77786506     0.05200
O692        O  0.10333388  0.80496743  0.86565227    -0.57400
H693        H  0.16423687  0.82573439  0.88580833     0.18100
O694        O  0.20725282  0.85724061  0.75335680    -0.64100
H695        H  0.14563592  0.83698996  0.73326146     0.16600
C696        C  0.06864974  0.82029027  0.79369592     0.28800
C697        C  0.03636684  0.80774494  0.77845135    -0.25000
C698        C  0.02266767  0.78301627  0.74693084    -0.24300
C699        C  0.04241718  0.77065596  0.73133462     0.40300
C700        C  0.07487384  0.78318619  0.74681449    -0.26800
O701        O  0.08142635  0.84589919  0.82220143    -0.58700
H702        H  0.02229684  0.81832674  0.79073180     0.15900
O703        O  0.03074657  0.74710316  0.70011055    -0.60100
H704        H  0.08961989  0.77343282  0.73432258     0.14400
H705        H  0.20288301  0.83867948  0.73437937     0.46200
H706        H  0.06840249  0.83711877  0.84835500     0.41600
H707        H  0.03734965  0.75939825  0.67307289     0.45100
H708        H  0.10683507  0.82256079  0.88594754     0.36500
C709        C  0.15515027  0.89976155  0.28343258    -0.27700
C710        C  0.16587072  0.87921285  0.26674011     0.01900
C711        C  0.18996246  0.89194088  0.23477284     0.30000
C712        C  0.20190320  0.92412982  0.21934249    -0.19500
C713        C  0.19038741  0.94434126  0.23554376    -0.28900
C714        C  0.16740104  0.93184105  0.26886176     0.44000
C715        C  0.15191720  0.84503033  0.28390819     0.05200
O716        O  0.20161269  0.87299977  0.21781974    -0.57400
H717        H  0.21901764  0.93267573  0.19334130     0.18100
O718        O  0.15550262  0.95038725  0.28643166    -0.64100
H719        H  0.13648045  0.89068909  0.30757248     0.16600
C720        C  0.15073938  0.83965495  0.32806039     0.28800
C721        C  0.13827885  0.80785356  0.34403733    -0.25000
C722        C  0.12676614  0.78039290  0.31700896    -0.24300
C723        C  0.12626115  0.78545439  0.27283138     0.40300
C724        C  0.13887190  0.81748644  0.25668420    -0.26800
O725        O  0.16419439  0.86566876  0.35591151    -0.58700
H726        H  0.13952684  0.80495065  0.37800146     0.15900
O727        O  0.11599787  0.75974905  0.24491321    -0.60100
H728        H  0.13890597  0.82083128  0.22268067     0.14400
H729        H  0.16792764  0.95889534  0.31346457     0.46200
H730        H  0.14534604  0.86456518  0.37114687     0.41600
H731        H  0.09270329  0.75266292  0.23843832     0.45100
H732        H  0.21931604  0.87556120  0.23758078     0.36500
C733        C  0.18017579  0.76832029  0.65224927    -0.27700
C734        C  0.20517170  0.77416947  0.62350679     0.01900
C735        C  0.23732276  0.78615957  0.63909303     0.30000
C736        C  0.24426608  0.79265866  0.68228584    -0.19500
C737        C  0.21953132  0.78715090  0.71136883    -0.28900
C738        C  0.18708283  0.77450042  0.69592631     0.44000
C739        C  0.19786054  0.76645660  0.57756394     0.05200
O740        O  0.26221737  0.79121449  0.61235995    -0.57400
H741        H  0.26935906  0.80185813  0.69299273     0.18100
O742        O  0.16218002  0.76908816  0.72280002    -0.64100
H743        H  0.15526882  0.75909188  0.64076738     0.16600
C744        C  0.17521212  0.73443214  0.56385171     0.28800
C745        C  0.17244077  0.72631273  0.52069494    -0.25000
C746        C  0.19168072  0.74985969  0.49028772    -0.24300
C747        C  0.21318712  0.78236211  0.50383053     0.40300
C748        C  0.21611706  0.79040859  0.54711943    -0.26800
O749        O  0.15729148  0.71033720  0.59264786    -0.58700
H750        H  0.15542209  0.70124885  0.51107563     0.15900
O751        O  0.23238730  0.80616573  0.47538051    -0.60100
H752        H  0.23351889  0.81525435  0.55714548     0.14400
H753        H  0.15195138  0.74564660  0.73074160     0.46200
H754        H  0.13513882  0.70800045  0.59198373     0.41600
H755        H  0.25281025  0.80501181  0.47348080     0.45100
H756        H  0.26112578  0.76968229  0.61022416     0.36500
C757        C  0.19802649  0.77932362  0.15186673    -0.27700
C758        C  0.19022986  0.75358063  0.12321613     0.01900
C759        C  0.17457288  0.72118734  0.13799516     0.30000
C760        C  0.16687581  0.71479545  0.18090543    -0.19500
C761        C  0.17446634  0.74040421  0.21002865    -0.28900
C762        C  0.19024168  0.77299276  0.19498534     0.44000
C763        C  0.19982371  0.76059059  0.07824909     0.05200
O764        O  0.16796351  0.69571396  0.11098246    -0.57400
H765        H  0.15523027  0.68956254  0.19139563     0.18100
O766        O  0.19748367  0.79875766  0.22174175    -0.64100
H767        H  0.21018803  0.80440831  0.14071866     0.16600
C768        C  0.17615663  0.75197211  0.04569381     0.28800
C769        C  0.18569944  0.75664071  0.00310020    -0.25000
C770        C  0.21887738  0.76983759  0.99216578    -0.24300
C771        C  0.24258543  0.77896586  0.02532749     0.40300
C772        C  0.23291788  0.77448813  0.06776204    -0.26800
O773        O  0.14357246  0.73855554  0.05521324    -0.58700
H774        H  0.16696478  0.74950188  0.97861072     0.15900
O775        O  0.27538093  0.79253890  0.01688786    -0.60100
H776        H  0.25131995  0.78119431  0.09264835     0.14400
H777        H  0.22074174  0.80752639  0.23042752     0.46200
H778        H  0.14036416  0.75755363  0.06011832     0.41600
H779        H  0.27973689  0.77400969  0.01804102     0.45100
H780        H  0.14464922  0.68648710  0.10226193     0.36500
C781        C  0.16328503  0.50439853  0.28253920    -0.27700
C782        C  0.17055574  0.53133764  0.30843872     0.01900
C783        C  0.19176883  0.53870736  0.34365189     0.30000
C784        C  0.20557784  0.51919505  0.35271449    -0.19500
C785        C  0.19848682  0.49208607  0.32699647    -0.28900
C786        C  0.17707130  0.48470869  0.29161974     0.44000
C787        C  0.15774741  0.55326933  0.29817700     0.05200
O788        O  0.19916742  0.56508271  0.36936818    -0.57400
H789        H  0.22179117  0.52524670  0.38008265     0.18100
O790        O  0.16998640  0.45880540  0.26523000    -0.64100
H791        H  0.14724361  0.49889054  0.25509038     0.16600
C792        C  0.17574269  0.58023212  0.27151098     0.28800
C793        C  0.17062168  0.60697663  0.27301802    -0.25000
C794        C  0.14732519  0.60672104  0.30049697    -0.24300
C795        C  0.12686237  0.57822602  0.32366299     0.40300
C796        C  0.13237852  0.55173201  0.32265563    -0.26800
O797        O  0.20033584  0.58185045  0.24686164    -0.58700
H798        H  0.18657644  0.62890696  0.25531258     0.15900
O799        O  0.10471876  0.57786016  0.35188245    -0.60100
H800        H  0.11881509  0.53123626  0.34377817     0.14400
H801        H  0.18718749  0.46790689  0.24326518     0.46200
H802        H  0.22050950  0.59301949  0.26477044     0.41600
H803        H  0.08378456  0.56900781  0.33564669     0.45100
H804        H  0.21831937  0.58396928  0.35610871     0.36500
C805        C  0.14790582  0.29144228  0.26236395    -0.27700
C806        C  0.12190713  0.27679914  0.29126771     0.01900
C807        C  0.12947654  0.28256266  0.33498923     0.30000
C808        C  0.16179014  0.30420278  0.34878630    -0.19500
C809        C  0.18745542  0.32080256  0.31979280    -0.28900
C810        C  0.18038302  0.31293288  0.27624342     0.44000
C811        C  0.08711661  0.25576843  0.27571310     0.05200
O812        O  0.10516929  0.26863836  0.36457368    -0.57400
H813        H  0.16635529  0.30975097  0.38238230     0.18100
O814        O  0.20435108  0.32818325  0.24653309    -0.64100
H815        H  0.14289955  0.28678413  0.22867880     0.16600
C816        C  0.07315158  0.26671022  0.24428800     0.28800
C817        C  0.04100991  0.24573780  0.22869065    -0.25000
C818        C  0.02200403  0.21357805  0.24403275    -0.24300
C819        C  0.03549088  0.20340764  0.27713979     0.40300
C820        C  0.06753173  0.22429170  0.29246807    -0.26800
O821        O  0.09087373  0.29773615  0.22807916    -0.58700
H822        H  0.03151318  0.25422804  0.20324140     0.15900
O823        O  0.01756367  0.17286846  0.29476994    -0.60100
H824        H  0.07744484  0.21533617  0.31683332     0.14400
H825        H  0.21407676  0.31390584  0.24316703     0.46200
H826        H  0.08790646  0.31207433  0.24841344     0.41600
H827        H  0.02671113  0.15968521  0.28283699     0.45100
H828        H  0.09686818  0.28414881  0.36776068     0.36500
C829        C  0.20223309  0.27652573  0.74417732    -0.27700
C830        C  0.17035344  0.26391131  0.76034271     0.01900
C831        C  0.14945243  0.22989320  0.76122828     0.30000
C832        C  0.16001325  0.20898322  0.74581759    -0.19500
C833        C  0.19172092  0.22102403  0.72879151    -0.28900
C834        C  0.21292325  0.25538150  0.72821056     0.44000
C835        C  0.15889365  0.28573694  0.77801209     0.05200
O836        O  0.11811719  0.21676367  0.77622194    -0.57400
H837        H  0.14254832  0.18292094  0.74655564     0.18100
O838        O  0.24400194  0.26857113  0.71244976    -0.64100
H839        H  0.21880277  0.30280178  0.74382529     0.16600
C840        C  0.15975863  0.29090834  0.82202582     0.28800
C841        C  0.14833065  0.31088633  0.83872402    -0.25000
C842        C  0.13591981  0.32640049  0.81218150    -0.24300
C843        C  0.13318302  0.31947469  0.76817487     0.40300
C844        C  0.14477036  0.29944394  0.75146266    -0.26800
O845        O  0.17226089  0.27690465  0.84902336    -0.58700
H846        H  0.15082192  0.31564364  0.87258903     0.15900
O847        O  0.12141951  0.33390305  0.74079141    -0.60100
H848        H  0.14313666  0.29495380  0.71757544     0.14400
H849        H  0.24226140  0.27448214  0.68271594     0.46200
H850        H  0.19614635  0.29284378  0.85096097     0.41600
H851        H  0.09743748  0.31842844  0.73877942     0.45100
H852        H  0.11969305  0.21224207  0.80662669     0.36500
C853        C  0.20667439  0.43569330  0.05993808    -0.27700
C854        C  0.19692819  0.40323761  0.07070194     0.01900
C855        C  0.18845891  0.37975676  0.03822935     0.30000
C856        C  0.19008192  0.38905874  0.99554946    -0.19500
C857        C  0.20009114  0.42170360  0.98466436    -0.28900
C858        C  0.20818663  0.44500796  0.01748064     0.44000
C859        C  0.19888460  0.39551478  0.11584551     0.05200
O860        O  0.17762131  0.34757086  0.04804412    -0.57400
H861        H  0.18293507  0.37056136  0.97095926     0.18100
O862        O  0.21894594  0.47728687  0.00839331    -0.64100
H863        H  0.21385926  0.45411620  0.08465392     0.16600
C864        C  0.22426909  0.39016180  0.12978679     0.28800
C865        C  0.23109564  0.39078478  0.17318211    -0.25000
C866        C  0.21240311  0.39593308  0.20348998    -0.24300
C867        C  0.18489413  0.39797721  0.18962712     0.40300
C868        C  0.17873657  0.39849021  0.14598001    -0.26800
O869        O  0.24443411  0.38732552  0.10113519    -0.58700
H870        H  0.25193664  0.38841034  0.18309289     0.15900
O871        O  0.16550717  0.40213027  0.21814796    -0.60100
H872        H  0.15902325  0.40253728  0.13559038     0.14400
H873        H  0.19968911  0.48014500  0.01279195     0.46200
H874        H  0.23734885  0.36363879  0.10047094     0.41600
H875        H  0.14729458  0.37967430  0.22407334     0.45100
H876        H  0.19543226  0.34346197  0.03935113     0.36500
C877        C  0.23445067  0.44380448  0.55703717    -0.27700
C878        C  0.20681322  0.41484365  0.57046262     0.01900
C879        C  0.18607763  0.39187156  0.53955990     0.30000
C880        C  0.19314352  0.39807639  0.49628268    -0.19500
C881        C  0.22107018  0.42694011  0.48278602    -0.28900
C882        C  0.24179094  0.44989700  0.51390893     0.44000
C883        C  0.19879600  0.41013532  0.61646424     0.05200
O884        O  0.15887390  0.36315825  0.55129517    -0.57400
H885        H  0.17692773  0.37991399  0.47327398     0.18100
O886        O  0.26873560  0.47899811  0.50262377    -0.64100
H887        H  0.25019254  0.46221323  0.58011409     0.16600
C888        C  0.22249795  0.41470581  0.64780071     0.28800
C889        C  0.21513431  0.41358139  0.69108196    -0.25000
C890        C  0.18429133  0.40810204  0.70377876    -0.24300
C891        C  0.16019783  0.40203088  0.67239111     0.40300
C892        C  0.16753533  0.40307128  0.62937843    -0.26800
O893        O  0.25315184  0.42098546  0.63647061    -0.58700
H894        H  0.23395342  0.41823637  0.71465081     0.15900
O895        O  0.12916166  0.39477017  0.68348089    -0.60100
H896        H  0.14895794  0.39951980  0.60599453     0.14400
H897        H  0.28770717  0.47546746  0.50626297     0.46200
H898        H  0.25097664  0.39910686  0.63239626     0.41600
H899        H  0.12855124  0.41529461  0.67889730     0.45100
H900        H  0.16679427  0.34744038  0.55590152     0.36500
C901        C  0.17228597  0.63823069  0.78633210    -0.27700
C902        C  0.18550618  0.62047100  0.80519536     0.01900
C903        C  0.20799469  0.63427789  0.83924528     0.30000
C904        C  0.21786207  0.66598690  0.85324611    -0.19500
C905        C  0.20538629  0.68441338  0.83392136    -0.28900
C906        C  0.18221106  0.67012949  0.80018763     0.44000
C907        C  0.17611403  0.58736128  0.79002164     0.05200
O908        O  0.22069991  0.61695805  0.85882439    -0.57400
H909        H  0.23549763  0.67619773  0.87920513     0.18100
O910        O  0.16956032  0.68722398  0.77989926    -0.64100
H911        H  0.15479583  0.62760037  0.76027382     0.16600
C912        C  0.14554602  0.56036274  0.80060712     0.28800
C913        C  0.14094637  0.52865681  0.79825556    -0.25000
C914        C  0.16696640  0.52394562  0.78641570    -0.24300
C915        C  0.19603358  0.55062739  0.77088652     0.40300
C916        C  0.20034708  0.58216150  0.77249406    -0.26800
O917        O  0.12133360  0.56497577  0.81721856    -0.58700
H918        H  0.11850917  0.50837012  0.81048879     0.15900
O919        O  0.22119584  0.54633323  0.75705342    -0.60100
H920        H  0.22379559  0.60288811  0.76371677     0.14400
H921        H  0.18484941  0.69882080  0.75637394     0.46200
H922        H  0.12504276  0.56633080  0.84837796     0.41600
H923        H  0.23791235  0.55486333  0.78024599     0.45100
H924        H  0.20418527  0.60317964  0.88015167     0.36500
C925        C  0.45882821  0.79777934  0.78227278    -0.27700
C926        C  0.42783983  0.78236365  0.80090571     0.01900
C927        C  0.41969969  0.75695731  0.83017044     0.30000
C928        C  0.44216449  0.74677499  0.83983632    -0.19500
C929        C  0.47319390  0.76169336  0.82085798    -0.28900
C930        C  0.48142614  0.78750986  0.79176529     0.44000
C931        C  0.40382499  0.79280340  0.79073024     0.05200
O932        O  0.38974006  0.74191491  0.84958690    -0.57400
H933        H  0.43510946  0.72703728  0.86234658     0.18100
O934        O  0.51130243  0.80280632  0.77221400    -0.64100
H935        H  0.46530319  0.81747750  0.75986152     0.16600
C936        C  0.40904513  0.82347990  0.80449228     0.28800
C937        C  0.38269410  0.82936828  0.80504575    -0.25000
C938        C  0.35118885  0.80472086  0.79226435    -0.24300
C939        C  0.34701128  0.77559988  0.77392276     0.40300
C940        C  0.37329253  0.76979974  0.77327115    -0.26800
O941        O  0.43860360  0.84614371  0.82220588    -0.58700
H942        H  0.38615376  0.85170767  0.81972818     0.15900
O943        O  0.31658003  0.75131573  0.76052967    -0.60100
H944        H  0.36920054  0.74625290  0.76216169     0.14400
H945        H  0.50791337  0.79037611  0.74544649     0.46200
H946        H  0.45106175  0.86096000  0.79862914     0.41600
H947        H  0.31374856  0.75776202  0.73152213     0.45100
H948        H  0.39254115  0.75576449  0.87474554     0.36500
C949        C  0.69120228  0.83791318  0.81748025    -0.27700
C950        C  0.69438548  0.84394280  0.77360246     0.01900
C951        C  0.67682920  0.81699822  0.74568457     0.30000
C952        C  0.65508391  0.78547136  0.76181076    -0.19500
C953        C  0.65009433  0.78014250  0.80574592    -0.28900
C954        C  0.66951456  0.80663781  0.83349103     0.44000
C955        C  0.71638282  0.87840449  0.75818168     0.05200
O956        O  0.68103026  0.82116403  0.70266074    -0.57400
H957        H  0.64042824  0.76571909  0.73968881     0.18100
O958        O  0.66600066  0.80273165  0.87658678    -0.64100
H959        H  0.70469837  0.85794549  0.83969727     0.16600
C960        C  0.70556311  0.89396799  0.72900603     0.28800
C961        C  0.72694297  0.92653986  0.71596853    -0.25000
C962        C  0.75936658  0.94458832  0.73188103    -0.24300
C963        C  0.76963227  0.92919156  0.76223971     0.40300
C964        C  0.74834995  0.89677801  0.77498938    -0.26800
O965        O  0.67403428  0.87774917  0.71323319    -0.58700
H966        H  0.71828635  0.93739686  0.69255889     0.15900
O967        O  0.80050677  0.94566796  0.78016266    -0.60100
H968        H  0.75717597  0.88575391  0.79794689     0.14400
H969        H  0.68107067  0.79477060  0.88545754     0.46200
H970        H  0.66092968  0.88197691  0.73404295     0.41600
H971        H  0.81327742  0.93720724  0.76536549     0.45100
H972        H  0.65955582  0.81678777  0.69085693     0.36500
C973        C  0.33509461  0.51056042  0.77962131    -0.27700
C974        C  0.35112008  0.54388937  0.79033220     0.01900
C975        C  0.33615826  0.55534483  0.81881952     0.30000
C976        C  0.30544016  0.53364997  0.83559673    -0.19500
C977        C  0.28916479  0.50013727  0.82498335    -0.28900
C978        C  0.30454536  0.48868701  0.79679576     0.44000
C979        C  0.38451207  0.56641736  0.77460513     0.05200
O980        O  0.35157017  0.58771315  0.83095758    -0.57400
H981        H  0.29436200  0.54323055  0.85696258     0.18100
O982        O  0.28972830  0.45633245  0.78483144    -0.64100
H983        H  0.34636201  0.50141950  0.75787623     0.16600
C984        C  0.41061739  0.56075727  0.78405990     0.28800
C985        C  0.44304407  0.58648378  0.78104009    -0.25000
C986        C  0.44949500  0.61790769  0.76963508    -0.24300
C987        C  0.42369112  0.62209921  0.75390218     0.40300
C988        C  0.39136080  0.59633989  0.75642130    -0.26800
O989        O  0.40473599  0.53140514  0.80068059    -0.58700
H990        H  0.46268301  0.58286170  0.79301106     0.15900
O991        O  0.42947215  0.65234710  0.74101713    -0.60100
H992        H  0.37149058  0.60067244  0.74781444     0.14400
H993        H  0.29830061  0.44617079  0.80502066     0.46200
H994        H  0.40412675  0.53389241  0.83184585     0.41600
H995        H  0.43799396  0.65489961  0.71181086     0.45100
H996        H  0.36625648  0.58961177  0.85495963     0.36500
C997        C  0.40753044  0.55855153  0.29144424    -0.27700
C998        C  0.40354174  0.58484916  0.27874582     0.01900
C999        C  0.37313921  0.57876486  0.26216339     0.30000
C1000       C  0.34617203  0.54691817  0.26259693    -0.19500
C1001       C  0.34925750  0.52100013  0.27955417    -0.28900
C1002       C  0.38062868  0.52661513  0.29166037     0.44000
C1003       C  0.42819526  0.61828098  0.29215242     0.05200
O1004       O  0.36899423  0.60419135  0.24874498    -0.57400
H1005       H  0.32224322  0.54297162  0.25308073     0.18100
O1006       O  0.38439119  0.50210110  0.30945818    -0.64100
H1007       H  0.43081154  0.56317682  0.30479273     0.16600
C1008       C  0.42465137  0.63023637  0.33141141     0.28800
C1009       C  0.44684410  0.66239128  0.34385382    -0.25000
C1010       C  0.47316420  0.68297984  0.31781936    -0.24300
C1011       C  0.47714604  0.67063455  0.27879194     0.40300
C1012       C  0.45455563  0.63842283  0.26613051    -0.26800
O1013       O  0.39893490  0.61081992  0.35733331    -0.58700
H1014       H  0.44333537  0.67129258  0.37390845     0.15900
O1015       O  0.50180388  0.69036741  0.25170870    -0.60100
H1016       H  0.45727914  0.62935294  0.23575747     0.14400
H1017       H  0.39077319  0.49274919  0.28571412     0.46200
H1018       H  0.40666820  0.59834369  0.37461218     0.41600
H1019       H  0.51954026  0.68522888  0.25713241     0.45100
H1020       H  0.36106351  0.61071716  0.27387886     0.36500
C1021       C  0.69039744  0.83154354  0.32338214    -0.27700
C1022       C  0.69204645  0.82371544  0.28073211     0.01900
C1023       C  0.67252837  0.82872939  0.25050989     0.30000
C1024       C  0.65038825  0.83891653  0.26343609    -0.19500
C1025       C  0.64700431  0.84426711  0.30656274    -0.28900
C1026       C  0.66844647  0.84185208  0.33622679     0.44000
C1027       C  0.71348378  0.80970172  0.26843529     0.05200
O1028       O  0.67389661  0.82249304  0.20832804    -0.57400
H1029       H  0.63400737  0.84007600  0.23995238     0.18100
O1030       O  0.66640633  0.84716825  0.37857085    -0.64100
H1031       H  0.70500232  0.82807256  0.34740086     0.16600
C1032       C  0.74664118  0.82472047  0.28166418     0.28800
C1033       C  0.76658376  0.81205608  0.26854259    -0.25000
C1034       C  0.75446265  0.78405989  0.24206732    -0.24300
C1035       C  0.72079923  0.76801184  0.23061171     0.40300
C1036       C  0.70079498  0.78086500  0.24357660    -0.26800
O1037       O  0.76050922  0.85319747  0.30509396    -0.58700
H1038       H  0.79222511  0.82518544  0.27812706     0.15900
O1039       O  0.70744865  0.74074979  0.20496370    -0.60100
H1040       H  0.67520052  0.76831192  0.23378388     0.14400
H1041       H  0.68217548  0.87083181  0.38323520     0.46200
H1042       H  0.76425492  0.84701187  0.33383564     0.41600
H1043       H  0.69829275  0.72187536  0.22466073     0.45100
H1044       H  0.69299793  0.84268003  0.19731879     0.36500
C1045       C  0.55591711  0.73327810  0.61738396    -0.27700
C1046       C  0.56844366  0.76602107  0.60599279     0.01900
C1047       C  0.57993563  0.79030637  0.63795211     0.30000
C1048       C  0.57859945  0.78146371  0.68081851    -0.19500
C1049       C  0.56555553  0.74838804  0.69243171    -0.28900
C1050       C  0.55436698  0.72428475  0.65978004     0.44000
C1051       C  0.56602325  0.77330824  0.56084549     0.05200
O1052       O  0.59203915  0.82259877  0.62763489    -0.57400
H1053       H  0.58744847  0.80048728  0.70492994     0.18100
O1054       O  0.54071757  0.69153292  0.66867554    -0.64100
H1055       H  0.54627395  0.71427437  0.59317162     0.16600
C1056       C  0.58144763  0.76510964  0.52899466     0.28800
C1057       C  0.57399847  0.76652469  0.48606287    -0.25000
C1058       C  0.55065747  0.77547555  0.47414928    -0.24300
C1059       C  0.53606327  0.78470795  0.50650367     0.40300
C1060       C  0.54399674  0.78374621  0.54917313    -0.26800
O1061       O  0.60384201  0.75567287  0.53966938    -0.58700
H1062       H  0.58603888  0.75990009  0.46217428     0.15900
O1063       O  0.51376560  0.79453898  0.49708660    -0.60100
H1064       H  0.53165163  0.78971695  0.57341259     0.14400
H1065       H  0.55894466  0.68682190  0.66614991     0.46200
H1066       H  0.59182467  0.73144078  0.53675326     0.41600
H1067       H  0.49190621  0.77455745  0.49993669     0.45100
H1068       H  0.61603808  0.83182461  0.62468185     0.36500
C1069       C  0.53916121  0.73556650  0.04839996    -0.27700
C1070       C  0.55971601  0.76845730  0.05971783     0.01900
C1071       C  0.57524365  0.79190095  0.02765976     0.30000
C1072       C  0.56979919  0.78220748  0.98482629    -0.19500
C1073       C  0.54855687  0.74924084  0.97320184    -0.28900
C1074       C  0.53347579  0.72581330  0.00583869     0.44000
C1075       C  0.56263883  0.77790266  0.10504673     0.05200
O1076       O  0.59633281  0.82416793  0.03802829    -0.57400
H1077       H  0.58201402  0.80067843  0.96072502     0.18100
O1078       O  0.51255218  0.69329322  0.99677697    -0.64100
H1079       H  0.52678661  0.71735566  0.07278302     0.16600
C1080       C  0.55083137  0.79834657  0.11889823     0.28800
C1081       C  0.55053627  0.80449113  0.16211245    -0.25000
C1082       C  0.56144227  0.79012588  0.19277613    -0.24300
C1083       C  0.57383841  0.77001257  0.17874889     0.40300
C1084       C  0.57423478  0.76396834  0.13517175    -0.26800
O1085       O  0.53836528  0.81154151  0.09052053    -0.58700
H1086       H  0.54096962  0.82018080  0.17149556     0.15900
O1087       O  0.58542526  0.75599375  0.20709192    -0.60100
H1088       H  0.58316431  0.74794061  0.12484503     0.14400
H1089       H  0.52645634  0.68298816  0.99818942     0.46200
H1090       H  0.51473169  0.79495426  0.08744449     0.41600
H1091       H  0.56659341  0.73375194  0.21231057     0.45100
H1092       H  0.58488387  0.83610449  0.02918091     0.36500
C1093       C  0.38294104  0.76719721  0.27085220    -0.27700
C1094       C  0.37680414  0.78861919  0.29485639     0.01900
C1095       C  0.40359680  0.81810504  0.31038378     0.30000
C1096       C  0.43576209  0.82443324  0.30457081    -0.19500
C1097       C  0.44157460  0.80134332  0.28427584    -0.28900
C1098       C  0.41497314  0.77312777  0.26603590     0.44000
C1099       C  0.34265507  0.77762758  0.30808937     0.05200
O1100       O  0.39851332  0.83882454  0.33563914    -0.57400
H1101       H  0.45587055  0.84573906  0.31995111     0.18100
O1102       O  0.41997934  0.75033345  0.24552840    -0.64100
H1103       H  0.36263841  0.74464139  0.25821665     0.16600
C1104       C  0.32803884  0.79709935  0.30206226     0.28800
C1105       C  0.29603227  0.78599566  0.31602279    -0.32200
C1106       C  0.27772990  0.75517859  0.33558928    -0.24300
C1107       C  0.29234291  0.73550724  0.34088341     0.40300
C1108       C  0.32448802  0.74690067  0.32751610    -0.26800
O1109       O  0.34456480  0.82677668  0.28199986    -0.58700
H1110       H  0.28542600  0.80152976  0.31100516     0.15900
O1111       O  0.27552547  0.70500626  0.35884222    -0.60100
H1112       H  0.33535635  0.73157845  0.33246362     0.14400
H1113       H  0.41360333  0.73220603  0.26603933     0.46200
H1114       H  0.34074514  0.82153859  0.25126750     0.41600
H1115       H  0.26469432  0.68962057  0.33472407     0.45100
H1116       H  0.40631674  0.85921777  0.31898631     0.36500
C1117       C  0.82750805  0.56533329  0.12267186    -0.27700
C1118       C  0.83409159  0.59424499  0.10145817     0.01900
C1119       C  0.85547326  0.60384713  0.06633792     0.30000
C1120       C  0.86845520  0.58404850  0.05238267    -0.19500
C1121       C  0.86064782  0.55447866  0.07286774    -0.28900
C1122       C  0.84046585  0.54580464  0.10897866     0.44000
C1123       C  0.82004184  0.61461051  0.11868427     0.05200
O1124       O  0.86486051  0.63309845  0.04644101    -0.57400
H1125       H  0.88361322  0.59125086  0.02441591     0.18100
O1126       O  0.83325126  0.51806262  0.13144927    -0.64100
H1127       H  0.81164135  0.55735657  0.14997776     0.16600
C1128       C  0.80465325  0.62782720  0.09288747     0.28800
C1129       C  0.79311604  0.64769476  0.11093897    -0.25000
C1130       C  0.79648154  0.65484337  0.15476377    -0.24300
C1131       C  0.80961741  0.63954988  0.18065946     0.40300
C1132       C  0.82120551  0.62001839  0.16272970    -0.26800
O1133       O  0.79988828  0.62072175  0.05028610    -0.58700
H1134       H  0.78307913  0.65889899  0.09013621     0.15900
O1135       O  0.81192298  0.64410158  0.22384558    -0.60100
H1136       H  0.83220575  0.60983570  0.18365681     0.14400
H1137       H  0.81012782  0.50188483  0.12392577     0.46200
H1138       H  0.81226364  0.64210188  0.03563655     0.41600
H1139       H  0.83553073  0.65940958  0.23001909     0.45100
H1140       H  0.85611992  0.62726804  0.01698767     0.36500
C1141       C  0.01183419  0.49645636  0.92337609    -0.27700
C1142       C  0.02634479  0.48430074  0.95213806     0.01900
C1143       C  0.02045085  0.48522140  0.99580736     0.30000
C1144       C  0.00003346  0.49701641  0.00968915    -0.19500
C1145       C  0.98391664  0.50736148  0.98094408    -0.28900
C1146       C  0.99077849  0.50774958  0.93734583     0.44000
C1147       C  0.04765538  0.47094123  0.93686339     0.05200
O1148       O  0.03305149  0.47294206  0.02533384    -0.57400
H1149       H  0.99495961  0.49587360  0.04328961     0.18100
O1150       O  0.97503202  0.51648836  0.90773107    -0.64100
H1151       H  0.01628612  0.49660645  0.88972823     0.16600
C1152       C  0.03819947  0.44840148  0.90263552     0.28800
C1153       C  0.05939731  0.43740866  0.88832641    -0.25000
C1154       C  0.09025936  0.44826106  0.90777639    -0.24300
C1155       C  0.09891114  0.46950430  0.94326855     0.40300
C1156       C  0.07796440  0.48068768  0.95716271    -0.26800
O1157       O  0.00845478  0.43721179  0.88249751    -0.58700
H1158       H  0.05220835  0.42143920  0.86077260     0.15900
O1159       O  0.12802351  0.47964730  0.96472008    -0.60100
H1160       H  0.08605373  0.49790570  0.98343974     0.14400
H1161       H  0.98940932  0.54047408  0.90416943     0.46200
H1162       H  0.99288595  0.41732252  0.89830760     0.41600
H1163       H  0.14260943  0.50271403  0.95600780     0.45100
H1164       H  0.01711372  0.44906399  0.02627612     0.36500
C1165       C  0.81602069  0.23094128  0.61896356    -0.27700
C1166       C  0.82773510  0.21116808  0.60232593     0.01900
C1167       C  0.85302730  0.22503990  0.57204485     0.30000
C1168       C  0.86518752  0.25751900  0.55799784    -0.19500
C1169       C  0.85262059  0.27693296  0.57373767    -0.28900
C1170       C  0.82815177  0.26328155  0.60520623     0.44000
C1171       C  0.81387269  0.17653199  0.61759326     0.05200
O1172       O  0.86583011  0.20696404  0.55554833    -0.57400
H1173       H  0.88352098  0.26701436  0.53342724     0.18100
O1174       O  0.81569776  0.28136210  0.62278700    -0.64100
H1175       H  0.79666349  0.22103333  0.64218318     0.16600
C1176       C  0.81206502  0.16954572  0.66131586     0.28800
C1177       C  0.80192945  0.13756600  0.67511642    -0.25000
C1178       C  0.79342752  0.11165085  0.64616846    -0.24300
C1179       C  0.79239970  0.11803417  0.60253247     0.40300
C1180       C  0.80276717  0.15020472  0.58861770    -0.26800
O1181       O  0.82317744  0.19437265  0.69082028    -0.58700
H1182       H  0.80325493  0.13360557  0.70878652     0.15900
O1183       O  0.78434069  0.09381863  0.57288079    -0.60100
H1184       H  0.80307559  0.15476338  0.55489229     0.14400
H1185       H  0.79368345  0.27288269  0.60945178     0.46200
H1186       H  0.80321018  0.19154543  0.70495704     0.41600
H1187       H  0.76036822  0.08397147  0.56802223     0.45100
H1188       H  0.88319292  0.20970163  0.57604375     0.36500
C1189       C  0.06850788  0.56744441  0.46601375    -0.27700
C1190       C  0.03863630  0.54591161  0.44553010     0.01900
C1191       C  0.02685970  0.55896435  0.41386925     0.30000
C1192       C  0.04624057  0.59197015  0.40084016    -0.19500
C1193       C  0.07731763  0.61265638  0.41927441    -0.28900
C1194       C  0.08749575  0.60027587  0.45358555     0.44000
C1195       C  0.01990634  0.51052994  0.45911011     0.05200
O1196       O  0.99607209  0.53997134  0.39643450    -0.57400
H1197       H  0.03762279  0.60080004  0.37477294     0.18100
O1198       O  0.11650525  0.62007180  0.47486635    -0.64100
H1199       H  0.07786326  0.55857594  0.49119035     0.16600
C1200       C  0.00626192  0.48406778  0.42978361     0.28800
C1201       C  0.98701693  0.45145422  0.44412816    -0.25000
C1202       C  0.98109977  0.44453407  0.48761235    -0.24300
C1203       C  0.99779484  0.47066124  0.51682558     0.40300
C1204       C  0.01644704  0.50305567  0.50262661    -0.26800
O1205       O  0.01206470  0.48978901  0.38718750    -0.58700
H1206       H  0.97482109  0.43189102  0.42093965     0.15900
O1207       O  0.99403557  0.46506195  0.55965349    -0.60100
H1208       H  0.02722593  0.52259779  0.52603850     0.14400
H1209       H  0.13180172  0.61256139  0.46583577     0.46200
H1210       H  0.99019520  0.48129486  0.37341297     0.41600
H1211       H  0.01119238  0.45972802  0.56809242     0.45100
H1212       H  0.99940633  0.53858345  0.36565624     0.36500
C1213       C  0.89560061  0.42199051  0.81071571    -0.27700
C1214       C  0.89441786  0.44315539  0.78014796     0.01900
C1215       C  0.89562753  0.47216569  0.79367359     0.30000
C1216       C  0.89722750  0.47929192  0.83703122    -0.19500
C1217       C  0.89780345  0.45794413  0.86793477    -0.28900
C1218       C  0.89740944  0.42922317  0.85428048     0.44000
C1219       C  0.88945525  0.43367739  0.73451556     0.05200
O1220       O  0.89302592  0.49261410  0.76483435    -0.57400
H1221       H  0.89742159  0.50150556  0.84645129     0.18100
O1222       O  0.89766399  0.40751357  0.88307295    -0.64100
H1223       H  0.89452021  0.39945983  0.80073423     0.16600
C1224       C  0.91209194  0.45343901  0.70352759     0.28800
C1225       C  0.90590452  0.44444073  0.66049314    -0.25000
C1226       C  0.87733202  0.41553325  0.64747126    -0.24300
C1227       C  0.85478144  0.39575273  0.67885240     0.40300
C1228       C  0.86098321  0.40492116  0.72172159    -0.26800
O1229       O  0.94045818  0.48149552  0.71499651    -0.58700
H1230       H  0.92381302  0.45994849  0.63734534     0.15900
O1231       O  0.82599934  0.36789010  0.66802108    -0.60100
H1232       H  0.84313708  0.38968864  0.74512086     0.14400
H1233       H  0.87423181  0.39211335  0.88928163     0.46200
H1234       H  0.95650449  0.47428461  0.72170929     0.41600
H1235       H  0.83029086  0.34955471  0.67286783     0.45100
H1236       H  0.91522983  0.51231835  0.76372185     0.36500
C1237       C  0.91642156  0.42782957  0.20411092    -0.27700
C1238       C  0.89982587  0.43426665  0.23607133     0.01900
C1239       C  0.87739413  0.44445651  0.22440886     0.30000
C1240       C  0.87159377  0.44777422  0.18158482    -0.19500
C1241       C  0.88763089  0.44077385  0.14923979    -0.28900
C1242       C  0.91063040  0.43111053  0.16107603     0.44000
C1243       C  0.90379672  0.42778939  0.28128314     0.05200
O1244       O  0.86017510  0.45028491  0.25464764    -0.57400
H1245       H  0.85390590  0.45536000  0.17382080     0.18100
O1246       O  0.92712918  0.42412560  0.13105550    -0.64100
H1247       H  0.93373808  0.41990524  0.21258053     0.16600
C1248       C  0.89655018  0.39628468  0.29401934     0.28800
C1249       C  0.89637678  0.38919685  0.33708187    -0.25000
C1250       C  0.90302358  0.41301560  0.36862639    -0.24300
C1251       C  0.91178546  0.44507987  0.35572150     0.40300
C1252       C  0.91211471  0.45220422  0.31237360    -0.26800
O1253       O  0.88822870  0.37175747  0.26468081    -0.58700
H1254       H  0.89002499  0.36446009  0.34569202     0.15900
O1255       O  0.91938891  0.46947332  0.38498036    -0.60100
H1256       H  0.91808325  0.47669641  0.30301300     0.14400
H1257       H  0.94788469  0.44505281  0.12660725     0.46200
H1258       H  0.86412994  0.36150249  0.26057679     0.41600
H1259       H  0.89839694  0.46892309  0.39037285     0.45100
H1260       H  0.84059060  0.42860262  0.26021289     0.36500
C1261       C  0.74286767  0.60429211  0.56811246    -0.27700
C1262       C  0.75623255  0.59277595  0.59947566     0.01900
C1263       C  0.73618189  0.56086702  0.61531487     0.30000
C1264       C  0.70413773  0.54123622  0.59985111    -0.19500
C1265       C  0.69116930  0.55189558  0.56707514    -0.28900
C1266       C  0.71075365  0.58409945  0.55175364     0.44000
C1267       C  0.79056035  0.61388336  0.61654293     0.05200
O1268       O  0.74808466  0.54789479  0.64482747    -0.57400
H1269       H  0.68990290  0.51659230  0.61220855     0.18100
O1270       O  0.69976551  0.59533036  0.51891811    -0.64100
H1271       H  0.75746276  0.62888855  0.55584641     0.16600
C1272       C  0.81790180  0.63119249  0.58989096     0.28800
C1273       C  0.84959309  0.65114540  0.60754120    -0.25000
C1274       C  0.85464208  0.65470094  0.65179474    -0.24300
C1275       C  0.82751889  0.63587084  0.67816071     0.40300
C1276       C  0.79608054  0.61628387  0.66064542    -0.26800
O1277       O  0.81395466  0.62874411  0.54660349    -0.58700
H1278       H  0.86978809  0.66560456  0.58649276     0.15900
O1279       O  0.83104085  0.63813053  0.72150154    -0.60100
H1280       H  0.77564291  0.60364604  0.68198637     0.14400
H1281       H  0.68894812  0.60631031  0.53263916     0.46200
H1282       H  0.81696220  0.65018786  0.53725207     0.41600
H1283       H  0.83745379  0.62173102  0.72951477     0.45100
H1284       H  0.75949162  0.53879569  0.62821108     0.36500
C1285       C  0.48487536  0.50253249  0.41856930    -0.27700
C1286       C  0.45831925  0.48946772  0.44666391     0.01900
C1287       C  0.46452645  0.48682214  0.48981825     0.30000
C1288       C  0.49617183  0.49488716  0.50374483    -0.19500
C1289       C  0.52254951  0.50597029  0.47534310    -0.28900
C1290       C  0.51680796  0.51111082  0.43263671     0.44000
C1291       C  0.42402394  0.47757266  0.43088107     0.05200
O1292       O  0.43921317  0.47380038  0.51808125    -0.57400
H1293       H  0.49957145  0.49042372  0.53664047     0.18100
O1294       O  0.54144125  0.52174878  0.40354592    -0.64100
H1295       H  0.48064007  0.50518875  0.38532026     0.16600
C1296       C  0.40701113  0.49382131  0.44224222     0.28800
C1297       C  0.37457890  0.48196553  0.42804170    -0.25000
C1298       C  0.35806716  0.45374481  0.40193498    -0.24300
C1299       C  0.37502695  0.43708596  0.39130102     0.40300
C1300       C  0.40768810  0.44913288  0.40549378    -0.26800
O1301       O  0.42207582  0.52172216  0.46675863    -0.58700
H1302       H  0.36260046  0.49559926  0.43682139     0.15900
O1303       O  0.36057064  0.40984874  0.36561360    -0.60100
H1304       H  0.42033983  0.43616207  0.39666933     0.14400
H1305       H  0.55180156  0.54598633  0.40366905     0.46200
H1306       H  0.43349373  0.53997297  0.44641378     0.41600
H1307       H  0.34980590  0.39101345  0.38525216     0.45100
H1308       H  0.44068673  0.49292194  0.53328949     0.36500
C1309       C  0.75138031  0.49694928  0.46533791    -0.27700
C1310       C  0.74843731  0.46925577  0.44445920     0.01900
C1311       C  0.72054066  0.45009826  0.41866498     0.30000
C1312       C  0.69405941  0.45567052  0.41928007    -0.19500
C1313       C  0.69550563  0.48099099  0.44419405    -0.28900
C1314       C  0.72517873  0.50310952  0.46494307     0.44000
C1315       C  0.77031167  0.45639644  0.45698112     0.05200
O1316       O  0.71756375  0.42372537  0.39636781    -0.57400
H1317       H  0.67136875  0.43852777  0.40313125     0.18100
O1318       O  0.72707333  0.52776054  0.49011112    -0.64100
H1319       H  0.77255187  0.51187923  0.48547105     0.16600
C1320       C  0.80473843  0.47549175  0.45541443     0.28800
C1321       C  0.82410405  0.46223979  0.46931266    -0.25000
C1322       C  0.80957296  0.43018670  0.48579711    -0.24300
C1323       C  0.77501573  0.41148136  0.48791869     0.40300
C1324       C  0.75589539  0.42459996  0.47359372    -0.26800
O1325       O  0.81956259  0.50661790  0.43914814    -0.58700
H1326       H  0.85056106  0.47718553  0.46724510     0.15900
O1327       O  0.75941766  0.37995417  0.50287256    -0.60100
H1328       H  0.72943325  0.40984322  0.47605270     0.14400
H1329       H  0.73547351  0.54716997  0.47139706     0.46200
H1330       H  0.82869209  0.52149542  0.46407338     0.41600
H1331       H  0.75490753  0.38182499  0.53309191     0.45100
H1332       H  0.72693311  0.43254379  0.36815781     0.36500
C1333       C  0.35101127  0.17148955  0.15011963    -0.27700
C1334       C  0.35440985  0.17747497  0.10624658     0.01900
C1335       C  0.33761362  0.15032758  0.07840395     0.30000
C1336       C  0.31673851  0.11851705  0.09452635    -0.19500
C1337       C  0.31173740  0.11301848  0.13844561    -0.28900
C1338       C  0.33004945  0.13995194  0.16615027     0.44000
C1339       C  0.37621814  0.21199314  0.09061117     0.05200
O1340       O  0.34177233  0.15456541  0.03539714    -0.57400
H1341       H  0.30281140  0.09854162  0.07239113     0.18100
O1342       O  0.32623982  0.13609703  0.20922232    -0.64100
H1343       H  0.36387213  0.19169447  0.17228937     0.16600
C1344       C  0.36523616  0.22735423  0.06130826     0.28800
C1345       C  0.38679791  0.25954270  0.04691716    -0.25000
C1346       C  0.41959482  0.27740361  0.06157634    -0.24300
C1347       C  0.42987668  0.26244429  0.09258877     0.40300
C1348       C  0.40840565  0.23042514  0.10669759    -0.26800
O1349       O  0.33343663  0.21121747  0.04649609    -0.58700
H1350       H  0.37806050  0.27011409  0.02320505     0.15900
O1351       O  0.46105169  0.27894709  0.10963187    -0.60100
H1352       H  0.41733323  0.21964863  0.12988444     0.14400
H1353       H  0.34323609  0.13090581  0.21893487     0.46200
H1354       H  0.32061928  0.21476572  0.06848754     0.41600
H1355       H  0.47318289  0.26946423  0.09553747     0.45100
H1356       H  0.32028660  0.15025686  0.02372801     0.36500
C1357       C  0.66943501  0.46873085  0.94941644    -0.27700
C1358       C  0.68617564  0.45419329  0.96782947     0.01900
C1359       C  0.67033041  0.42920176  0.99791955     0.30000
C1360       C  0.63753284  0.41787834  0.00774425    -0.19500
C1361       C  0.61996999  0.43123307  0.98807216    -0.28900
C1362       C  0.63656853  0.45756468  0.95939221     0.44000
C1363       C  0.72012992  0.46454023  0.95569447     0.05200
O1364       O  0.68714254  0.41636365  0.01867849    -0.57400
H1365       H  0.62582626  0.39838193  0.03072793     0.18100
O1366       O  0.62072615  0.47181598  0.93970692    -0.64100
H1367       H  0.68167534  0.48831443  0.92665525     0.16600
C1368       C  0.72711666  0.44189253  0.93634453     0.28800
C1369       C  0.75943362  0.44821335  0.93556308    -0.25000
C1370       C  0.78490301  0.47698122  0.95392439    -0.24300
C1371       C  0.77843074  0.50147684  0.96834954     0.40300
C1372       C  0.74597913  0.49503664  0.96937341    -0.26800
O1373       O  0.70218897  0.41279091  0.92030543    -0.58700
H1374       H  0.76419605  0.42935104  0.92397044     0.15900
O1375       O  0.80280008  0.52970312  0.98688738    -0.60100
H1376       H  0.74076421  0.51266849  0.98414542     0.14400
H1377       H  0.62582684  0.49123525  0.95743408     0.46200
H1378       H  0.70111464  0.39544504  0.93920174     0.41600
H1379       H  0.81279473  0.54539353  0.96322833     0.45100
H1380       H  0.67705295  0.39331372  0.00870133     0.36500
C1381       C  0.48643987  0.56612183  0.94248847    -0.27700
C1382       C  0.49717877  0.54570196  0.92534464     0.01900
C1383       C  0.52177451  0.55893439  0.89400876     0.30000
C1384       C  0.53401056  0.59133029  0.87935557    -0.19500
C1385       C  0.52241252  0.61136281  0.89579993    -0.28900
C1386       C  0.49907490  0.59849456  0.92872320     0.44000
C1387       C  0.48285871  0.51103786  0.94099344     0.05200
O1388       O  0.53374655  0.54029517  0.87697724    -0.57400
H1389       H  0.55159187  0.60026758  0.85388099     0.18100
O1390       O  0.48740968  0.61705466  0.94687523    -0.64100
H1391       H  0.46749832  0.55676687  0.96626576     0.16600
C1392       C  0.48060451  0.50412829  0.98482808     0.28800
C1393       C  0.46980023  0.47205819  0.99891930    -0.25000
C1394       C  0.46085979  0.44593119  0.97022441    -0.24300
C1395       C  0.46050108  0.45230008  0.92646413     0.40300
C1396       C  0.47153863  0.48453308  0.91225169    -0.26800
O1397       O  0.49177398  0.52902567  0.01424018    -0.58700
H1398       H  0.47066666  0.46807878  0.03266663     0.15900
O1399       O  0.45241817  0.42793630  0.89702107    -0.60100
H1400       H  0.47211677  0.48895677  0.87846487     0.14400
H1401       H  0.50003462  0.62541414  0.97381156     0.46200
H1402       H  0.47184047  0.52623423  0.02844897     0.41600
H1403       H  0.42833728  0.41764854  0.89279873     0.45100
H1404       H  0.55113083  0.54257145  0.89711644     0.36500
C1405       C  0.55105221  0.45433420  0.19713529    -0.27700
C1406       C  0.53830077  0.42883931  0.22686162     0.01900
C1407       C  0.52154746  0.39618677  0.21260235     0.30000
C1408       C  0.51817843  0.38929814  0.16913211    -0.19500
C1409       C  0.53150106  0.41467779  0.13895705    -0.28900
C1410       C  0.54754372  0.44752067  0.15345827     0.44000
C1411       C  0.54511108  0.43642195  0.27259363     0.05200
O1412       O  0.50919917  0.37080072  0.24096650    -0.57400
H1413       H  0.50542115  0.36382540  0.15912686     0.18100
O1414       O  0.56116184  0.47312834  0.12549897    -0.64100
H1415       H  0.56425998  0.47962209  0.20791306     0.16600
C1416       C  0.57728844  0.44962009  0.28839790     0.28800
C1417       C  0.58382884  0.45658611  0.33158917    -0.25000
C1418       C  0.55864069  0.45086267  0.36001024    -0.24300
C1419       C  0.52615359  0.43701270  0.34416596     0.40300
C1420       C  0.51959053  0.42974319  0.30069150    -0.26800
O1421       O  0.60236671  0.45473112  0.26197537    -0.58700
H1422       H  0.60890842  0.46649008  0.34280793     0.15900
O1423       O  0.50073902  0.43072655  0.37058533    -0.60100
H1424       H  0.49461790  0.41922369  0.28877010     0.14400
H1425       H  0.54425862  0.47957408  0.12105776     0.46200
H1426       H  0.61317782  0.47827211  0.25437342     0.41600
H1427       H  0.49930827  0.45102770  0.37040081     0.45100
H1428       H  0.52747863  0.36655769  0.24696212     0.36500
C1429       C  0.52260618  0.43469146  0.69649033    -0.27700
C1430       C  0.54412819  0.43442290  0.72746401     0.01900
C1431       C  0.57338439  0.43599692  0.71474712     0.30000
C1432       C  0.58051891  0.43720420  0.67153637    -0.19500
C1433       C  0.55884431  0.43703847  0.64011490    -0.28900
C1434       C  0.52988642  0.43637495  0.65320986     0.44000
C1435       C  0.53388880  0.42824972  0.77234892     0.05200
O1436       O  0.59424798  0.43447059  0.74423244    -0.57400
H1437       H  0.60296997  0.43777651  0.66267431     0.18100
O1438       O  0.50838899  0.43719405  0.62415422    -0.64100
H1439       H  0.49984569  0.43321809  0.70596189     0.16600
C1440       C  0.54955205  0.45214281  0.80442019     0.28800
C1441       C  0.53990261  0.44439488  0.84690945    -0.25000
C1442       C  0.51481795  0.41274615  0.85807361    -0.24300
C1443       C  0.49908756  0.38908795  0.82526541     0.40300
C1444       C  0.50847917  0.39711933  0.78313689    -0.26800
O1445       O  0.57452678  0.48292750  0.79463519    -0.58700
H1446       H  0.55251320  0.46299021  0.87117117     0.15900
O1447       O  0.47432449  0.35785432  0.83370917    -0.60100
H1448       H  0.49630177  0.37853480  0.75870622     0.14400
H1449       H  0.51607591  0.46081763  0.61998675     0.46200
H1450       H  0.56354515  0.49558740  0.78719045     0.41600
H1451       H  0.48509790  0.34436885  0.83521201     0.45100
H1452       H  0.61125826  0.45760505  0.74991275     0.36500
C1453       C  0.36680090  0.11376153  0.55735848    -0.27700
C1454       C  0.37820146  0.13765450  0.58991357     0.01900
C1455       C  0.40931316  0.14770159  0.60826469     0.30000
C1456       C  0.42833530  0.13443836  0.59410321    -0.19500
C1457       C  0.41763293  0.11136617  0.56067623    -0.28900
C1458       C  0.38626772  0.10082309  0.54256994     0.44000
C1459       C  0.35742251  0.15124690  0.60594694     0.05200
O1460       O  0.42197881  0.17138883  0.63935672    -0.57400
H1461       H  0.45240118  0.14339189  0.60845417     0.18100
O1462       O  0.37484655  0.07887468  0.50943496    -0.64100
H1463       H  0.34279200  0.10524043  0.54309767     0.16600
C1464       C  0.34249432  0.16392889  0.57855822     0.28800
C1465       C  0.32167626  0.17471378  0.59491869    -0.25000
C1466       C  0.31540099  0.17326216  0.63869864    -0.24300
C1467       C  0.33212269  0.16254620  0.66610143     0.40300
C1468       C  0.35242220  0.15146490  0.64974998    -0.26800
O1469       O  0.34729013  0.16503882  0.53563295    -0.58700
H1470       H  0.30875044  0.18214674  0.57298089     0.15900
O1471       O  0.32698464  0.16057352  0.70901344    -0.60100
H1472       H  0.36338949  0.14178929  0.67156241     0.14400
H1473       H  0.38221194  0.09249086  0.48348954     0.46200
H1474       H  0.36800244  0.18592506  0.53082277     0.41600
H1475       H  0.34255404  0.18279029  0.72023858     0.45100
H1476       H  0.43333843  0.19252722  0.62400636     0.36500
C1477       C  0.66350783  0.21468928  0.47905071    -0.27700
C1478       C  0.68213396  0.20213391  0.46115807     0.01900
C1479       C  0.66813749  0.16794111  0.45701173     0.30000
C1480       C  0.63588250  0.14695531  0.47032036    -0.19500
C1481       C  0.61711325  0.15954764  0.48821584    -0.28900
C1482       C  0.63143761  0.19389385  0.49249895     0.44000
C1483       C  0.71686478  0.22530664  0.45044391     0.05200
O1484       O  0.68574576  0.15479660  0.44005550    -0.57400
H1485       H  0.62555947  0.12073189  0.46655431     0.18100
O1486       O  0.61409983  0.20762984  0.50861819    -0.64100
H1487       H  0.67411935  0.24090271  0.48342566     0.16600
C1488       C  0.72522731  0.25341776  0.42597622     0.28800
C1489       C  0.75761664  0.27964372  0.42640458    -0.25000
C1490       C  0.78199116  0.27794176  0.45041459    -0.24300
C1491       C  0.77441228  0.24831633  0.47060199     0.40300
C1492       C  0.74193543  0.22232699  0.47079045    -0.26800
O1493       O  0.70156191  0.25588636  0.40306344    -0.58700
H1494       H  0.76320431  0.30220721  0.41043765     0.15900
O1495       O  0.79750365  0.24611435  0.49510284    -0.60100
H1496       H  0.73593698  0.20098833  0.48995429     0.14400
H1497       H  0.62061158  0.21188497  0.53901419     0.46200
H1498       H  0.69859061  0.27279167  0.41782490     0.41600
H1499       H  0.80836613  0.23809412  0.47561207     0.45100
H1500       H  0.68223337  0.15456877  0.40894611     0.36500
C1501       C  0.47493172  0.94429791  0.48274687    -0.27700
C1502       C  0.47682628  0.94029822  0.43888964     0.01900
C1503       C  0.46508135  0.95571862  0.41091001     0.30000
C1504       C  0.45492688  0.97717364  0.42689849    -0.19500
C1505       C  0.45614766  0.98349807  0.47069882    -0.28900
C1506       C  0.46441823  0.96519793  0.49862013     0.44000
C1507       C  0.49108603  0.91993768  0.42362268     0.05200
O1508       O  0.46321155  0.94976161  0.36804512    -0.57400
H1509       H  0.44849215  0.99070334  0.40472857     0.18100
O1510       O  0.46489076  0.96956791  0.54170308    -0.64100
H1511       H  0.48310316  0.93228461  0.50505801     0.16600
C1512       C  0.51586324  0.93115475  0.39258931     0.28800
C1513       C  0.52847997  0.91111804  0.37920964    -0.25000
C1514       C  0.51733362  0.87994615  0.39693246    -0.24300
C1515       C  0.49404400  0.86973539  0.42980706     0.40300
C1516       C  0.48117783  0.88946681  0.44257002    -0.26800
O1517       O  0.52807430  0.96167918  0.37513543    -0.58700
H1518       H  0.54616228  0.91954883  0.35385569     0.15900
O1519       O  0.48358869  0.84031265  0.44984822    -0.60100
H1520       H  0.46281346  0.88050296  0.46711870     0.14400
H1521       H  0.44186931  0.95519613  0.55062600     0.46200
H1522       H  0.54552653  0.97685281  0.39514780     0.41600
H1523       H  0.46109834  0.82548540  0.43859007     0.45100
H1524       H  0.47834652  0.97116941  0.35484175     0.36500
C1525       C  0.48477600  0.22782888  0.45692061    -0.27700
C1526       C  0.51470524  0.25153767  0.43948971     0.01900
C1527       C  0.53444070  0.24128754  0.41876761     0.30000
C1528       C  0.52633774  0.20846309  0.42072789    -0.19500
C1529       C  0.49813219  0.18547588  0.44201185    -0.28900
C1530       C  0.47620209  0.19484311  0.45778592     0.44000
C1531       C  0.52751741  0.28659713  0.44973377     0.05200
O1532       O  0.56309893  0.26359568  0.39975178    -0.57400
H1533       H  0.54336559  0.20142266  0.40847679     0.18100
O1534       O  0.44890622  0.17301237  0.47972135    -0.64100
H1535       H  0.46943876  0.23517586  0.47347209     0.16600
C1536       C  0.50802468  0.30123903  0.44446459     0.28800
C1537       C  0.51950670  0.33323842  0.45916518    -0.25000
C1538       C  0.55037117  0.35117821  0.47957715    -0.24300
C1539       C  0.57014242  0.33660396  0.48394481     0.40300
C1540       C  0.55860001  0.30463842  0.46924109    -0.26800
O1541       O  0.47809499  0.28472634  0.42403364    -0.58700
H1542       H  0.50396714  0.34390671  0.45462189     0.15900
O1543       O  0.60099145  0.35341571  0.50184367    -0.60100
H1544       H  0.57375247  0.29357737  0.47423524     0.14400
H1545       H  0.43113107  0.16264719  0.45803177     0.46200
H1546       H  0.46152861  0.27997540  0.44619990     0.41600
H1547       H  0.59819352  0.34628559  0.53185639     0.45100
H1548       H  0.55668068  0.26542178  0.37024032     0.36500
C1549       C  0.74313504  0.11618541  0.07201584    -0.27700
C1550       C  0.75751216  0.14326991  0.10000287     0.01900
C1551       C  0.73895596  0.15777207  0.11191651     0.30000
C1552       C  0.70711416  0.14576730  0.09546411    -0.19500
C1553       C  0.69267500  0.11909189  0.06670499    -0.28900
C1554       C  0.71099479  0.10395549  0.05563882     0.44000
C1555       C  0.79165357  0.15607387  0.11705180     0.05200
O1556       O  0.75257071  0.18510239  0.13757384    -0.57400
H1557       H  0.69405187  0.15828856  0.10445403     0.18100
O1558       O  0.69859045  0.07842879  0.02714613    -0.64100
H1559       H  0.75698917  0.10457274  0.06263141     0.16600
C1560       C  0.79771989  0.15670051  0.16103536     0.28800
C1561       C  0.82940982  0.16643577  0.17645770    -0.25000
C1562       C  0.85582206  0.17539816  0.14877639    -0.24300
C1563       C  0.85020869  0.17699586  0.10489221     0.40300
C1564       C  0.81832904  0.16703727  0.08939187    -0.26800
O1565       O  0.77243960  0.14590113  0.18921157    -0.58700
H1566       H  0.83281342  0.16460213  0.21020956     0.15900
O1567       O  0.87490316  0.18524631  0.07642771    -0.60100
H1568       H  0.81425291  0.16704610  0.05549121     0.14400
H1569       H  0.68766850  0.05833942  0.04466286     0.46200
H1570       H  0.76320725  0.12183458  0.19085567     0.41600
H1571       H  0.88576632  0.20942515  0.07381038     0.45100
H1572       H  0.74043360  0.17795140  0.16459412     0.36500
C1573       C  0.52804700  0.25592577  0.92300148    -0.27700
C1574       C  0.50491892  0.22682485  0.94253561     0.01900
C1575       C  0.47524890  0.22363577  0.95675351     0.30000
C1576       C  0.47044752  0.25059599  0.95522771    -0.19500
C1577       C  0.49537669  0.28092937  0.94040938    -0.28900
C1578       C  0.52346193  0.28300932  0.92195954     0.44000
C1579       C  0.51474170  0.20284538  0.95512881     0.05200
O1580       O  0.45229004  0.19533321  0.97590259    -0.57400
H1581       H  0.44884956  0.24872099  0.96988132     0.18100
O1582       O  0.54797893  0.31226748  0.90668768    -0.64100
H1583       H  0.55096395  0.25855840  0.91195709     0.16600
C1584       C  0.51927582  0.18358210  0.92499630     0.28800
C1585       C  0.53086756  0.16275284  0.93807207    -0.25000
C1586       C  0.53925263  0.16197686  0.98082740    -0.24300
C1587       C  0.53484591  0.18142678  0.01087681     0.40300
C1588       C  0.52222051  0.20135251  0.99799823    -0.26800
O1589       O  0.51222430  0.18482048  0.88292875    -0.58700
H1590       H  0.53425977  0.14792245  0.91462927     0.15900
O1591       O  0.54192833  0.18039144  0.05300144    -0.60100
H1592       H  0.51905087  0.21638133  0.02136471     0.14400
H1593       H  0.54075798  0.31385699  0.87753480     0.46200
H1594       H  0.53341805  0.20097897  0.87019985     0.41600
H1595       H  0.56417346  0.19960267  0.05765905     0.45100
H1596       H  0.43898157  0.18058136  0.95227418     0.36500
C1597       C  0.41002290  0.93444093  0.91029253    -0.27700
C1598       C  0.42434586  0.92300902  0.94033750     0.01900
C1599       C  0.40435046  0.89187484  0.95832566     0.30000
C1600       C  0.37142998  0.87258141  0.94549049    -0.19500
C1601       C  0.35738698  0.88317749  0.91394482    -0.28900
C1602       C  0.37696820  0.91487977  0.89707716     0.44000
C1603       C  0.45968957  0.94385622  0.95372770     0.05200
O1604       O  0.41703303  0.87940260  0.98745472    -0.57400
H1605       H  0.35718721  0.84837132  0.95910036     0.18100
O1606       O  0.36485430  0.92622143  0.86571162    -0.64100
H1607       H  0.42460176  0.95857580  0.89666401     0.16600
C1608       C  0.48521713  0.95899433  0.92397579     0.28800
C1609       C  0.51770364  0.98080052  0.93771707    -0.25000
C1610       C  0.52530790  0.98827615  0.98104775    -0.24300
C1611       C  0.50022601  0.97095097  0.01077418     0.40300
C1612       C  0.46794736  0.94936540  0.99710344    -0.26800
O1613       O  0.47860121  0.95283706  0.88139156    -0.58700
H1614       H  0.53633571  0.99388213  0.91415267     0.15900
O1615       O  0.50643055  0.97701623  0.05342776    -0.60100
H1616       H  0.44895103  0.93810646  0.02068374     0.14400
H1617       H  0.35578794  0.93834724  0.88078091     0.46200
H1618       H  0.48056766  0.97320842  0.86937870     0.41600
H1619       H  0.51600935  0.96340461  0.06254507     0.45100
H1620       H  0.42628935  0.86832371  0.97043539     0.36500
C1621       C  0.54745210  0.07099209  0.30224005    -0.27700
C1622       C  0.52827561  0.07577042  0.27163228     0.01900
C1623       C  0.50048894  0.07700658  0.28463019     0.30000
C1624       C  0.49262544  0.07432250  0.32756559    -0.19500
C1625       C  0.51221898  0.07056273  0.35874168    -0.28900
C1626       C  0.53943931  0.06806326  0.34549573     0.44000
C1627       C  0.53789857  0.08093290  0.22638794     0.05200
O1628       O  0.48136016  0.08186578  0.25566226    -0.57400
H1629       H  0.47132629  0.07595935  0.33648221     0.18100
O1630       O  0.55926975  0.06436954  0.37450548    -0.64100
H1631       H  0.56889709  0.06989136  0.29257876     0.16600
C1632       C  0.56724388  0.10869739  0.21390554     0.28800
C1633       C  0.57497265  0.11439936  0.17082672    -0.25000
C1634       C  0.55383920  0.09260125  0.13928162    -0.24300
C1635       C  0.52449382  0.06456768  0.15203436     0.40300
C1636       C  0.51666902  0.05910531  0.19519173    -0.26800
O1637       O  0.58777615  0.13123746  0.24348445    -0.58700
H1638       H  0.59757518  0.13621723  0.16215621     0.15900
O1639       O  0.50331013  0.04220686  0.12277994    -0.60100
H1640       H  0.49391577  0.03767213  0.20440882     0.14400
H1641       H  0.55010015  0.04033816  0.37675680     0.46200
H1642       H  0.60515178  0.12562377  0.24913787     0.41600
H1643       H  0.51083356  0.02608379  0.11939994     0.45100
H1644       H  0.49156417  0.10601967  0.25332273     0.36500
C1645       C  0.52312792  0.08968752  0.71670677    -0.27700
C1646       C  0.52974177  0.06471504  0.72739833     0.01900
C1647       C  0.53299190  0.04621090  0.69466756     0.30000
C1648       C  0.53088958  0.05376435  0.65193402    -0.19500
C1649       C  0.52574510  0.07987943  0.64105467    -0.28900
C1650       C  0.52126430  0.09746853  0.67431745     0.44000
C1651       C  0.53647798  0.06098036  0.77267360     0.05200
O1652       O  0.53750396  0.02030007  0.70425990    -0.57400
H1653       H  0.53354769  0.03924973  0.62733031     0.18100
O1654       O  0.51538159  0.12267752  0.66606678    -0.64100
H1655       H  0.52062965  0.10419022  0.74150674     0.16600
C1656       C  0.56791019  0.06748705  0.78554417     0.28800
C1657       C  0.57597879  0.06942733  0.82869983    -0.25000
C1658       C  0.55326840  0.06536827  0.86019195    -0.24300
C1659       C  0.52126024  0.05752287  0.84726309     0.40300
C1660       C  0.51318340  0.05554023  0.80385191    -0.26800
O1661       O  0.59159723  0.07373675  0.75617734    -0.58700
H1662       H  0.60063369  0.07514493  0.83741478     0.15900
O1663       O  0.49796563  0.05275348  0.87653524    -0.60100
H1664       H  0.48894211  0.05075372  0.79445671     0.14400
H1665       H  0.53728125  0.14284594  0.66698383     0.46200
H1666       H  0.60205137  0.09755032  0.75030371     0.41600
H1667       H  0.50043759  0.07471197  0.88116772     0.45100
H1668       H  0.56013895  0.02705743  0.69528175     0.36500
C1669       C  0.71457777  0.24829283  0.93481421    -0.27700
C1670       C  0.74271021  0.25365303  0.95735759     0.01900
C1671       C  0.74554809  0.22667371  0.97075010     0.30000
C1672       C  0.71889097  0.19482587  0.96523592    -0.19500
C1673       C  0.68933560  0.18979283  0.94691308    -0.28900
C1674       C  0.68798989  0.21659686  0.92944355     0.44000
C1675       C  0.76623410  0.28723873  0.97198178     0.05200
O1676       O  0.77252973  0.23136994  0.99370908    -0.57400
H1677       H  0.72010011  0.17452139  0.97956606     0.18100
O1678       O  0.65958891  0.21235729  0.91092202    -0.64100
H1679       H  0.71235225  0.26895039  0.92400271     0.16600
C1680       C  0.79879345  0.30402253  0.95809246     0.28800
C1681       C  0.81971214  0.33651380  0.97097259    -0.25000
C1682       C  0.80855204  0.35284310  0.99767806    -0.24300
C1683       C  0.77597959  0.33541671  0.01240947     0.40300
C1684       C  0.75522820  0.30295362  0.99952150    -0.26800
O1685       O  0.81017629  0.28914085  0.93127645    -0.58700
H1686       H  0.84457739  0.34910524  0.95920426     0.15900
O1687       O  0.76406290  0.34967502  0.03945024    -0.60100
H1688       H  0.73020312  0.28999456  0.01079067     0.14400
H1689       H  0.66147697  0.20857977  0.88040240     0.46200
H1690       H  0.80544082  0.29400910  0.90228455     0.41600
H1691       H  0.75235281  0.35765750  0.02097221     0.45100
H1692       H  0.78593908  0.22710877  0.97344883     0.36500
loop_ 
_geom_bond_atom_site_label_1 
_geom_bond_atom_site_label_2 
_geom_bond_distance 
_geom_bond_site_symmetry_2 
_ccdc_geom_bond_type 
Fe1          O17   2.048       .  S
Fe1           O7   2.082       .  S
Fe1          O14   2.083       .  S
Fe1           O6   2.040   1_554  S
Fe1          O12   1.920   1_554  S
Fe2           O5   2.023       .  S
Fe2           O9   2.098       .  S
Fe2          O13   2.044   1_554  S
Fe2          O18   2.119   1_554  S
Fe2          O12   1.926   1_554  S
Fe3          O21   2.140       .  S
Fe3           O8   2.049       .  S
Fe3          O15   2.094   1_556  S
Fe3           O4   2.105       .  S
Fe3          O12   1.963       .  S
O4           C11   1.275       .  A
O5           C19   1.252   1_554  A
O6           C11   1.264       .  A
O7           C10   1.277       .  A
O8           C20   1.274       .  A
O9           C22   1.277       .  A
C10          O15   1.284       .  A
C10        C1553   1.501       .  S
C11        C1673   1.469       .  S
O13          C16   1.264       .  A
O14          C16   1.272   1_554  A
C16        C1586   1.469       .  S
O17          C22   1.269       .  A
O18          C20   1.283       .  A
C19          O21   1.277       .  A
C19        C1610   1.491   1_545  S
C20        C1658   1.493       .  S
C22        C1634   1.491       .  S
Fe23         O39   2.079       .  S
Fe23         O29   2.037       .  S
Fe23         O36   2.047       .  S
Fe23         O28   2.081       .  S
Fe23         O34   1.919       .  S
Fe24         O27   2.128       .  S
Fe24         O31   2.052       .  S
Fe24         O35   2.106       .  S
Fe24         O40   2.025       .  S
Fe24         O34   1.934       .  S
Fe25         O43   2.033       .  S
Fe25         O30   2.133       .  S
Fe25         O37   2.096       .  S
Fe25         O26   2.091       .  S
Fe25         O34   1.967       .  S
O26          C33   1.283       .  A
O27          C41   1.285       .  A
O28          C33   1.276       .  A
O29          C32   1.264       .  A
O30          C42   1.275       .  A
O31          C44   1.266       .  A
C32          O37   1.273       .  A
C32        C1529   1.463       .  S
C33        C1457   1.499       .  S
O35          C38   1.279       .  A
O36          C38   1.268       .  A
C38        C1649   1.497       .  S
O39          C44   1.271       .  A
O40          C42   1.252       .  A
C41          O43   1.270       .  A
C41        C1625   1.491       .  S
C42        C1505   1.491   1_545  S
C44        C1481   1.488       .  S
Fe45         O61   2.042       .  S
Fe45         O51   2.092       .  S
Fe45         O58   2.082       .  S
Fe45         O50   2.041   1_554  S
Fe45         O56   1.918   1_554  S
Fe46         O49   2.024   1_556  S
Fe46         O53   2.098   1_556  S
Fe46         O57   2.040       .  S
Fe46         O62   2.128       .  S
Fe46         O56   1.936       .  S
Fe47         O65   2.140       .  S
Fe47         O52   2.035       .  S
Fe47         O59   2.101   1_556  S
Fe47         O48   2.097       .  S
Fe47         O56   1.966       .  S
O48          C55   1.272       .  A
O49          C63   1.251   1_554  A
O50          C55   1.263       .  A
O51          C54   1.278       .  A
O52          C64   1.271       .  A
O53          C66   1.278       .  A
C54          O59   1.287       .  A
C54        C1346   1.509       .  S
C55        C1577   1.467       .  S
O57          C60   1.262       .  A
O58          C60   1.272   1_554  A
C60        C1361   1.484       .  S
O61          C66   1.269       .  A
O62          C64   1.286       .  A
C63          O65   1.275       .  A
C63        C1394   1.497       .  S
C64        C1442   1.494       .  S
C66        C1409   1.488       .  S
Fe67         O83   2.076       .  S
Fe67         O73   2.043       .  S
Fe67         O80   2.052       .  S
Fe67         O72   2.075       .  S
Fe67         O78   1.925       .  S
Fe68         O71   2.119       .  S
Fe68         O75   2.041       .  S
Fe68         O79   2.095       .  S
Fe68         O84   2.028       .  S
Fe68         O78   1.935       .  S
Fe69         O87   2.037       .  S
Fe69         O74   2.141       .  S
Fe69         O81   2.102       .  S
Fe69         O70   2.091       .  S
Fe69         O78   1.965       .  S
O70          C77   1.285       .  A
O71          C85   1.284       .  A
O72          C77   1.277       .  A
O73          C76   1.263       .  A
O74          C86   1.277       .  A
O75          C88   1.264       .  A
C76          O81   1.271       .  A
C76        C1313   1.468       .  S
C77        C1265   1.495       .  S
O79          C82   1.277       .  A
O80          C82   1.269       .  A
C82        C1433   1.492       .  S
O83          C88   1.270       .  A
O84          C86   1.253       .  A
C85          O87   1.272       .  A
C85        C1418   1.486       .  S
C86        C1289   1.500       .  S
C88        C1538   1.485       .  S
Fe89        O105   2.077       .  S
Fe89         O95   2.046       .  S
Fe89        O102   2.054       .  S
Fe89         O94   2.085       .  S
Fe89        O100   1.917       .  S
Fe90         O93   2.126       .  S
Fe90         O97   2.048       .  S
Fe90        O101   2.094       .  S
Fe90        O106   2.022       .  S
Fe90        O100   1.933       .  S
Fe91        O109   2.039       .  S
Fe91         O96   2.144       .  S
Fe91        O103   2.104       .  S
Fe91         O92   2.092       .  S
Fe91        O100   1.971       .  S
O92          C99   1.285       .  A
O93         C107   1.285       .  A
O94          C99   1.278       .  A
O95          C98   1.264       .  A
O96         C108   1.274       .  A
O97         C110   1.266       .  A
C98         O103   1.273       .  A
C98        C1490   1.472       .  S
C99        C1169   1.500       .  S
O101        C104   1.276       .  A
O102        C104   1.269       .  A
C104       C1226   1.494       .  S
O105        C110   1.272       .  A
O106        C108   1.249       .  A
C107        O109   1.273       .  A
C107       C1250   1.492       .  S
C108       C1202   1.495       .  S
C110       C1322   1.486       .  S
Fe111       O127   2.051       .  S
Fe111       O117   2.083       .  S
Fe111       O124   2.085       .  S
Fe111       O116   2.039   1_554  S
Fe111       O122   1.920       .  S
Fe112       O115   2.019       .  S
Fe112       O119   2.095       .  S
Fe112       O123   2.038   1_554  S
Fe112       O128   2.125   1_554  S
Fe112       O122   1.933       .  S
Fe113       O131   2.152       .  S
Fe113       O118   2.039       .  S
Fe113       O125   2.104   1_556  S
Fe113       O114   2.100       .  S
Fe113       O122   1.971   1_556  S
O114        C121   1.274       .  A
O115        C129   1.250   1_554  A
O116        C121   1.265       .  A
O117        C120   1.276       .  A
O118        C130   1.271       .  A
O119        C132   1.276       .  A
C120        O125   1.287       .  A
C120       C1121   1.504       .  S
C121       C1370   1.467       .  S
O123        C126   1.264   1_556  A
O124        C126   1.272       .  A
C126       C1682   1.486   1_554  S
O127        C132   1.270       .  A
O128        C130   1.284       .  A
C129        O131   1.278       .  A
C129       C1145   1.501       .  S
C130       C1217   1.490       .  S
C132       C1241   1.493       .  S
Fe133       O149   2.035       .  S
Fe133       O139   2.079       .  S
Fe133       O146   2.075       .  S
Fe133       O138   2.037       .  S
Fe133       O144   1.917       .  S
Fe134       O137   2.027       .  S
Fe134       O141   2.107       .  S
Fe134       O145   2.047       .  S
Fe134       O150   2.127       .  S
Fe134       O144   1.929       .  S
Fe135       O153   2.151       .  S
Fe135       O140   2.030       .  S
Fe135       O147   2.089       .  S
Fe135       O136   2.115       .  S
Fe135       O144   1.959       .  S
O136        C143   1.276       .  A
O137        C151   1.252       .  A
O138        C143   1.262       .  A
O139        C142   1.276       .  A
O140        C152   1.271       .  A
O141        C154   1.280       .  A
C142        O147   1.284       .  A
C142       C1514   1.495       .  S
C143       C1097   1.472       .  S
O145        C148   1.264       .  A
O146        C148   1.270       .  A
C148       C1010   1.478       .  S
O149        C154   1.266       .  A
O150        C152   1.286       .  A
C151        O153   1.279       .  A
C151       C1025   1.497       .  S
C152       C1082   1.490       .  S
C154       C1058   1.493       .  S
Fe155       O171   2.068       .  S
Fe155       O161   2.035       .  S
Fe155       O168   2.040       .  S
Fe155       O160   2.075       .  S
Fe155       O166   1.918       .  S
Fe156       O159   2.122       .  S
Fe156       O163   2.047       .  S
Fe156       O167   2.104       .  S
Fe156       O172   2.028       .  S
Fe156       O166   1.934       .  S
Fe157       O175   2.032       .  S
Fe157       O162   2.140       .  S
Fe157       O169   2.102       .  S
Fe157       O158   2.101       .  S
Fe157       O166   1.963       .  S
O158        C165   1.285       .  A
O159        C173   1.284       .  A
O160        C165   1.274       .  A
O161        C164   1.263       .  A
O162        C174   1.278       .  A
O163        C176   1.264       .  A
C164        O169   1.274       .  A
C164        C986   1.467       .  S
C165       C1385   1.501       .  S
O167        C170   1.280       .  A
O168        C170   1.268       .  A
C170       C1073   1.492       .  S
O171        C176   1.269       .  A
O172        C174   1.254       .  A
C173        O175   1.269       .  A
C173       C1049   1.492       .  S
C174        C953   1.497       .  S
C176        C929   1.483       .  S
Fe177       O193   2.084       .  S
Fe177       O183   2.038       .  S
Fe177       O190   2.054       .  S
Fe177       O182   2.090       .  S
Fe177       O188   1.925       .  S
Fe178       O181   2.125       .  S
Fe178       O185   2.036       .  S
Fe178       O189   2.091       .  S
Fe178       O194   2.020       .  S
Fe178       O188   1.934       .  S
Fe179       O197   2.039       .  S
Fe179       O184   2.136       .  S
Fe179       O191   2.096       .  S
Fe179       O180   2.091       .  S
Fe179       O188   1.970       .  S
O180        C187   1.285       .  A
O181        C195   1.285       .  A
O182        C187   1.279       .  A
O183        C186   1.262       .  A
O184        C196   1.274       .  A
O185        C198   1.263       .  A
C186        O191   1.271       .  A
C186        C914   1.468       .  S
C187       C1154   1.499       .  S
O189        C192   1.276       .  A
O190        C192   1.269       .  A
C192        C857   1.486       .  S
O193        C198   1.273       .  A
O194        C196   1.250       .  A
C195        O197   1.272       .  A
C195        C890   1.484       .  S
C196        C842   1.497       .  S
C198        C977   1.486       .  S
Fe199       O215   2.050       .  S
Fe199       O205   2.088       .  S
Fe199       O212   2.079       .  S
Fe199       O204   2.044       .  S
Fe199       O210   1.926       .  S
Fe200       O203   2.025       .  S
Fe200       O207   2.098       .  S
Fe200       O211   2.043       .  S
Fe200       O216   2.121       .  S
Fe200       O210   1.936       .  S
Fe201       O219   2.137       .  S
Fe201       O206   2.043       .  S
Fe201       O213   2.095       .  S
Fe201       O202   2.099       .  S
Fe201       O210   1.967       .  S
O202        C209   1.273       .  A
O203        C217   1.252       .  A
O204        C209   1.264       .  A
O205        C208   1.278       .  A
O206        C218   1.273       .  A
O207        C220   1.278       .  A
C208        O213   1.285       .  A
C208       C1298   1.505       .  S
C209       C1001   1.473       .  S
O211        C214   1.264       .  A
O212        C214   1.272       .  A
C214        C785   1.477       .  S
O215        C220   1.269       .  A
O216        C218   1.284       .  A
C217        O219   1.275       .  A
C217        C809   1.497       .  S
C218        C866   1.485       .  S
C220        C881   1.492       .  S
Fe221       O237   2.052       .  S
Fe221       O227   2.074       .  S
Fe221       O234   2.082       .  S
Fe221       O226   2.045       .  S
Fe221       O232   1.919       .  S
Fe222       O225   2.022       .  S
Fe222       O229   2.092       .  S
Fe222       O233   2.045       .  S
Fe222       O238   2.117       .  S
Fe222       O232   1.935       .  S
Fe223       O241   2.140       .  S
Fe223       O228   2.044       .  S
Fe223       O235   2.102       .  S
Fe223       O224   2.091       .  S
Fe223       O232   1.973       .  S
O224        C231   1.270       .  A
O225        C239   1.250       .  A
O226        C231   1.264       .  A
O227        C230   1.276       .  A
O228        C240   1.274       .  A
O229        C242   1.275       .  A
C230        O235   1.287       .  A
C230       C1193   1.499       .  S
C231        C794   1.462       .  S
O233        C236   1.265       .  A
O234        C236   1.272       .  A
C236       C1106   1.488       .  S
O237        C242   1.269       .  A
O238        C240   1.284       .  A
C239        O241   1.274       .  A
C239        C722   1.498       .  S
C240        C761   1.489       .  S
C242        C746   1.486       .  S
Fe243       O259   2.079       .  S
Fe243       O249   2.036       .  S
Fe243       O256   2.045       .  S
Fe243       O248   2.084       .  S
Fe243       O254   1.918       .  S
Fe244       O247   2.127       .  S
Fe244       O251   2.036       .  S
Fe244       O255   2.101       .  S
Fe244       O260   2.023       .  S
Fe244       O254   1.931       .  S
Fe245       O263   2.032       .  S
Fe245       O250   2.144       .  S
Fe245       O257   2.101       .  S
Fe245       O246   2.089       .  S
Fe245       O254   1.965       .  S
O246        C253   1.284       .  A
O247        C261   1.285       .  A
O248        C253   1.278       .  A
O249        C252   1.263       .  A
O250        C262   1.276       .  A
O251        C264   1.263       .  A
C252        O257   1.273       .  A
C252        C938   1.467       .  S
C253       C1601   1.498       .  S
O255        C258   1.278       .  A
O256        C258   1.268       .  A
C258        C770   1.493       .  S
O259        C264   1.272       .  A
O260        C262   1.252       .  A
C261        O263   1.271       .  A
C261        C737   1.490       .  S
C262        C689   1.500       .  S
C264        C905   1.481       .  S
Fe265       O281   2.039       .  S
Fe265       O271   2.064       .  S
Fe265       O278   2.065       .  S
Fe265       O270   2.035       .  S
Fe265       O276   1.913       .  S
Fe266       O269   2.022       .  S
Fe266       O273   2.109       .  S
Fe266       O277   2.049       .  S
Fe266       O282   2.123       .  S
Fe266       O276   1.928       .  S
Fe267       O285   2.145       .  S
Fe267       O272   2.041       .  S
Fe267       O279   2.107       .  S
Fe267       O268   2.103       .  S
Fe267       O276   1.966       .  S
O268        C275   1.275       .  A
O269        C283   1.253       .  A
O270        C275   1.264       .  A
O271        C274   1.273       .  A
O272        C284   1.271       .  A
O273        C286   1.279       .  A
C274        O279   1.285       .  A
C274        C833   1.507       .  S
C275        C674   1.464       .  S
O277        C280   1.265       .  A
O278        C280   1.268       .  A
C280        C593   1.472       .  S
O281        C286   1.269       .  A
O282        C284   1.284       .  A
C283        O285   1.279       .  A
C283       C1466   1.496       .  S
C284        C650   1.495       .  S
C286        C617   1.492       .  S
Fe287       O303   2.075       .  S
Fe287       O293   2.045   1_545  S
Fe287       O300   2.051       .  S
Fe287       O292   2.075   1_545  S
Fe287       O298   1.921       .  S
Fe288       O291   2.120       .  S
Fe288       O295   2.045       .  S
Fe288       O299   2.100       .  S
Fe288       O304   2.024       .  S
Fe288       O298   1.937       .  S
Fe289       O307   2.041       .  S
Fe289       O294   2.153       .  S
Fe289       O301   2.110   1_545  S
Fe289       O290   2.103   1_545  S
Fe289       O298   1.968       .  S
O290        C297   1.287       .  A
O291        C305   1.284       .  A
O292        C297   1.276       .  A
O293        C296   1.264       .  A
O294        C306   1.279       .  A
O295        C308   1.265       .  A
C296        O301   1.274       .  A
C296        C569   1.472       .  S
C297        C713   1.501       .  S
O299        C302   1.278       .  A
O300        C302   1.269       .  A
C302        C641   1.496       .  S
O303        C308   1.270       .  A
O304        C306   1.251       .  A
C305        O307   1.273       .  A
C305        C626   1.491       .  S
C306       C1337   1.502       .  S
C308        C545   1.486       .  S
Fe309       O325   2.045       .  S
Fe309       O315   2.081       .  S
Fe309       O322   2.083       .  S
Fe309       O314   2.037       .  S
Fe309       O320   1.921       .  S
Fe310       O313   2.019       .  S
Fe310       O317   2.097       .  S
Fe310       O321   2.040       .  S
Fe310       O326   2.122       .  S
Fe310       O320   1.931       .  S
Fe311       O329   2.138       .  S
Fe311       O316   2.041       .  S
Fe311       O323   2.097       .  S
Fe311       O312   2.096       .  S
Fe311       O320   1.965       .  S
O312        C319   1.275       .  A
O313        C327   1.250       .  A
O314        C319   1.265       .  A
O315        C318   1.276       .  A
O316        C328   1.271       .  A
O317        C330   1.276       .  A
C318        O323   1.284       .  A
C318        C698   1.504   1_655  S
C319        C602   1.467   1_655  S
O321        C324   1.264       .  A
O322        C324   1.272       .  A
C324        C482   1.475       .  S
O325        C330   1.268       .  A
O326        C328   1.283       .  A
C327        O329   1.276       .  A
C327       C1274   1.492       .  S
C328        C521   1.485       .  S
C330        C497   1.490       .  S
Fe331       O347   2.084       .  S
Fe331       O337   2.043       .  S
Fe331       O344   2.061       .  S
Fe331       O336   2.091       .  S
Fe331       O342   1.927       .  S
Fe332       O335   2.111       .  S
Fe332       O339   2.049       .  S
Fe332       O343   2.090       .  S
Fe332       O348   2.021       .  S
Fe332       O342   1.940       .  S
Fe333       O351   2.045       .  S
Fe333       O338   2.148       .  S
Fe333       O345   2.108       .  S
Fe333       O334   2.101       .  S
Fe333       O342   1.973       .  S
O334        C341   1.287       .  A
O335        C349   1.282       .  A
O336        C341   1.280       .  A
O337        C340   1.263       .  A
O338        C350   1.276       .  A
O339        C352   1.266       .  A
C340        O345   1.274       .  A
C340        C449   1.475       .  S
C341       C1034   1.510       .  S
O343        C346   1.275       .  A
O344        C346   1.270       .  A
C346        C530   1.492       .  S
O347        C352   1.273       .  A
O348        C350   1.251       .  A
C349        O351   1.275       .  A
C349        C506   1.485       .  S
C350       C1130   1.506       .  S
C352        C578   1.491       .  S
Fe353       O369   2.039       .  S
Fe353       O359   2.088   1_545  S
Fe353       O366   2.088       .  S
Fe353       O358   2.033       .  S
Fe353       O364   1.920       .  S
Fe354       O357   2.023       .  S
Fe354       O361   2.100       .  S
Fe354       O365   2.038       .  S
Fe354       O370   2.121       .  S
Fe354       O364   1.928       .  S
Fe355       O373   2.147       .  S
Fe355       O360   2.040       .  S
Fe355       O367   2.095   1_545  S
Fe355       O356   2.108   1_545  S
Fe355       O364   1.958       .  S
O356        C363   1.277       .  A
O357        C371   1.253       .  A
O358        C363   1.264   1_545  A
O359        C362   1.276       .  A
O360        C372   1.270       .  A
O361        C374   1.277       .  A
C362        O367   1.284       .  A
C362        C962   1.506       .  S
C363        C473   1.477       .  S
O365        C368   1.264       .  A
O366        C368   1.272       .  A
C368        C665   1.469       .  S
O369        C374   1.268       .  A
O370        C372   1.282       .  A
C371        O373   1.279       .  A
C371       C1178   1.497       .  S
C372        C434   1.487       .  S
C374        C401   1.487       .  S
Fe375       O391   2.083       .  S
Fe375       O381   2.034       .  S
Fe375       O388   2.045       .  S
Fe375       O380   2.083       .  S
Fe375       O386   1.922       .  S
Fe376       O379   2.112       .  S
Fe376       O383   2.053       .  S
Fe376       O387   2.100       .  S
Fe376       O392   2.027       .  S
Fe376       O386   1.934       .  S
Fe377       O395   2.038       .  S
Fe377       O382   2.136       .  S
Fe377       O389   2.104       .  S
Fe377       O378   2.093       .  S
Fe377       O386   1.964       .  S
O378        C385   1.283       .  A
O379        C393   1.282       .  A
O380        C385   1.276       .  A
O381        C384   1.264       .  A
O382        C394   1.277       .  A
O383        C396   1.265       .  A
C384        O389   1.275       .  A
C384        C554   1.469   1_655  S
C385        C818   1.500   1_655  S
O387        C390   1.277       .  A
O388        C390   1.269       .  A
C390        C425   1.493       .  S
O391        C396   1.272       .  A
O392        C394   1.254       .  A
C393        O395   1.271       .  A
C393        C410   1.485       .  S
C394       C1562   1.494       .  S
C396        C458   1.487       .  S
C397        C398   1.405       .  A
C397        C402   1.403       .  A
C397        H407   1.083       .  S
C398        C403   1.481       .  S
C398        C399   1.405       .  A
C399        C400   1.395       .  A
C399        O404   1.372       .  S
C400        C401   1.408       .  A
C400        H405   1.083       .  S
C401        C402   1.413       .  A
C402        O406   1.371       .  S
C403        C408   1.404       .  A
C403        C412   1.405       .  A
O404        H420   0.992       .  S
O406        H417   0.992       .  S
C408        C409   1.396   1_556  A
C408        O413   1.372       .  S
C409        C410   1.408       .  A
C409        H414   1.083       .  S
C410        C411   1.411       .  A
C411        C412   1.403   1_554  A
C411        O415   1.371       .  S
C412        H416   1.084       .  S
O413        H418   0.992       .  S
O415        H419   0.992       .  S
C421        C422   1.407       .  A
C421        C426   1.406       .  A
C421        H431   1.084       .  S
C422        C427   1.488       .  S
C422        C423   1.407       .  A
C423        C424   1.399       .  A
C423        O428   1.373       .  S
C424        C425   1.409       .  A
C424        H429   1.083       .  S
C425        C426   1.414       .  A
C426        O430   1.371       .  S
C427        C432   1.413       .  A
C427        C436   1.400       .  A
O428        H444   0.992       .  S
O430        H441   0.992       .  S
C432        C433   1.406       .  A
C432        O437   1.371       .  S
C433        C434   1.405       .  A
C433        H438   1.083       .  S
C434        C435   1.414       .  A
C435        C436   1.397       .  A
C435        O439   1.372       .  S
C436        H440   1.084       .  S
O437        H442   0.992       .  S
O439        H443   0.992       .  S
C445        C446   1.401       .  A
C445        C450   1.399       .  A
C445        H455   1.084       .  S
C446        C451   1.477       .  S
C446        C447   1.407       .  A
C447        C448   1.403       .  A
C447        O452   1.372       .  S
C448        C449   1.404       .  A
C448        H453   1.084       .  S
C449        C450   1.410       .  A
C450        O454   1.372       .  S
C451        C456   1.406       .  A
C451        C460   1.400       .  A
O452        H468   0.992       .  S
O454        H465   0.992       .  S
C456        C457   1.397       .  A
C456        O461   1.372       .  S
C457        C458   1.404   1_565  A
C457        H462   1.083   1_565  S
C458        C459   1.417       .  A
C459        C460   1.405   1_545  A
C459        O463   1.372       .  S
C460        H464   1.083       .  S
O461        H466   0.992       .  S
O463        H467   0.992       .  S
C469        C470   1.399       .  A
C469        C474   1.396       .  A
C469        H479   1.084       .  S
C470        C475   1.470       .  S
C470        C471   1.404       .  A
C471        C472   1.400       .  A
C471        O476   1.371       .  S
C472        C473   1.407       .  A
C472        H477   1.084       .  S
C473        C474   1.413       .  A
C474        O478   1.374       .  S
C475        C480   1.402       .  A
C475        C484   1.402       .  A
O476        H492   0.992       .  S
O478        H489   0.992       .  S
C480        C481   1.399       .  A
C480        O485   1.371       .  S
C481        C482   1.408       .  A
C481        H486   1.084       .  S
C482        C483   1.408       .  A
C483        C484   1.396       .  A
C483        O487   1.372       .  S
C484        H488   1.084       .  S
O485        H490   0.992       .  S
O487        H491   0.992       .  S
C493        C494   1.405       .  A
C493        C498   1.403       .  A
C493        H503   1.083       .  S
C494        C499   1.485       .  S
C494        C495   1.407       .  A
C495        C496   1.397       .  A
C495        O500   1.372       .  S
C496        C497   1.408       .  A
C496        H501   1.083       .  S
C497        C498   1.414       .  A
C498        O502   1.371       .  S
C499        C504   1.406       .  A
C499        C508   1.406       .  A
O500        H516   0.992       .  S
O502        H513   0.992       .  S
C504        C505   1.396   1_556  A
C504        O509   1.372       .  S
C505        C506   1.406       .  A
C505        H510   1.083       .  S
C506        C507   1.412       .  A
C507        C508   1.404   1_554  A
C507        O511   1.372       .  S
C508        H512   1.083       .  S
O509        H514   0.992       .  S
O511        H515   0.992       .  S
C517        C518   1.400       .  A
C517        C522   1.397       .  A
C517        H527   1.084       .  S
C518        C523   1.487       .  S
C518        C519   1.411       .  A
C519        C520   1.408       .  A
C519        O524   1.372       .  S
C520        C521   1.405       .  A
C520        H525   1.083       .  S
C521        C522   1.413       .  A
C522        O526   1.372       .  S
C523        C528   1.408       .  A
C523        C532   1.404       .  A
O524        H540   0.992       .  S
O526        H537   0.992       .  S
C528        C529   1.402       .  A
C528        O533   1.372       .  S
C529        C530   1.408       .  A
C529        H534   1.083       .  S
C530        C531   1.414       .  A
C531        C532   1.404       .  A
C531        O535   1.371       .  S
C532        H536   1.084       .  S
O533        H538   0.992       .  S
O535        H539   0.992       .  S
C541        C542   1.403       .  A
C541        C546   1.395       .  A
C541        H551   1.083       .  S
C542        C547   1.480       .  S
C542        C543   1.405       .  A
C543        C544   1.401       .  A
C543        O548   1.371       .  S
C544        C545   1.411       .  A
C544        H549   1.083       .  S
C545        C546   1.412       .  A
C546        O550   1.372       .  S
C547        C552   1.408       .  A
C547        C556   1.405       .  A
O548        H564   0.992       .  S
O550        H561   0.992       .  S
C552        C553   1.396       .  A
C552        O557   1.374       .  S
C553        C554   1.403       .  A
C553        H558   1.084   1_455  S
C554        C555   1.407       .  A
C555        C556   1.400       .  A
C555        O559   1.371       .  S
C556        H560   1.083       .  S
O557        H562   0.992       .  S
O559        H563   0.992       .  S
C565        C566   1.404       .  A
C565        C570   1.401       .  A
C565        H575   1.083       .  S
C566        C571   1.485       .  S
C566        C567   1.410       .  A
C567        C568   1.399       .  A
C567        O572   1.371       .  S
C568        C569   1.402       .  A
C568        H573   1.084       .  S
C569        C570   1.409       .  A
C570        O574   1.371       .  S
C571        C576   1.406   1_455  A
C571        C580   1.403   1_455  A
O572        H588   0.992       .  S
O574        H585   0.991       .  S
C576        C577   1.405       .  A
C576        O581   1.372   1_655  S
C577        C578   1.411       .  A
C577        H582   1.083       .  S
C578        C579   1.412       .  A
C579        C580   1.398       .  A
C579        O583   1.372       .  S
C580        H584   1.084   1_655  S
O581        H586   0.992       .  S
O583        H587   0.992       .  S
C589        C590   1.399       .  A
C589        C594   1.393   1_565  A
C589        H599   1.084       .  S
C590        C595   1.465       .  S
C590        C591   1.402       .  A
C591        C592   1.399   1_565  A
C591        O596   1.371       .  S
C592        C593   1.406       .  A
C592        H597   1.084       .  S
C593        C594   1.410       .  A
C594        O598   1.372       .  S
C595        C600   1.404       .  A
C595        C604   1.399       .  A
O596        H612   0.992       .  S
O598        H609   0.992       .  S
C600        C601   1.398       .  A
C600        O605   1.372       .  S
C601        C602   1.404       .  A
C601        H606   1.084       .  S
C602        C603   1.409       .  A
C603        C604   1.397       .  A
C603        O607   1.373   1_455  S
C604        H608   1.084       .  S
O605        H610   0.992       .  S
O607        H611   0.992       .  S
C613        C614   1.406       .  A
C613        C618   1.406       .  A
C613        H623   1.083       .  S
C614        C619   1.486       .  S
C614        C615   1.406       .  A
C615        C616   1.396       .  A
C615        O620   1.372       .  S
C616        C617   1.410       .  A
C616        H621   1.083       .  S
C617        C618   1.414       .  A
C618        O622   1.371       .  S
C619        C624   1.405       .  A
C619        C628   1.406       .  A
O620        H636   0.992       .  S
O622        H633   0.992       .  S
C624        C625   1.399       .  A
C624        O629   1.372       .  S
C625        C626   1.411   1_556  A
C625        H630   1.083   1_556  S
C626        C627   1.412       .  A
C627        C628   1.403   1_554  A
C627        O631   1.371       .  S
C628        H632   1.084       .  S
O629        H634   0.992       .  S
O631        H635   0.992       .  S
C637        C638   1.399       .  A
C637        C642   1.399       .  A
C637        H647   1.084       .  S
C638        C643   1.487       .  S
C638        C639   1.409       .  A
C639        C640   1.407       .  A
C639        O644   1.372       .  S
C640        C641   1.409       .  A
C640        H645   1.083       .  S
C641        C642   1.418       .  A
C642        O646   1.371       .  S
C643        C648   1.405       .  A
C643        C652   1.406       .  A
O644        H660   0.992       .  S
O646        H657   0.991       .  S
C648        C649   1.398       .  A
C648        O653   1.372       .  S
C649        C650   1.411       .  A
C649        H654   1.083       .  S
C650        C651   1.413       .  A
C651        C652   1.406       .  A
C651        O655   1.371       .  S
C652        H656   1.084       .  S
O653        H658   0.992       .  S
O655        H659   0.992       .  S
C661        C662   1.404       .  A
C661        C666   1.399   1_455  A
C661        H671   1.084       .  S
C662        C667   1.472       .  S
C662        C663   1.404   1_455  A
C663        C664   1.397       .  A
C663        O668   1.371   1_655  S
C664        C665   1.405       .  A
C664        H669   1.084       .  S
C665        C666   1.406       .  A
C666        O670   1.372       .  S
C667        C672   1.406       .  A
C667        C676   1.401       .  A
O668        H684   0.992       .  S
O670        H681   0.992       .  S
C672        C673   1.399       .  A
C672        O677   1.372       .  S
C673        C674   1.403       .  A
C673        H678   1.084       .  S
C674        C675   1.407       .  A
C675        C676   1.397       .  A
C675        O679   1.373       .  S
C676        H680   1.084       .  S
O677        H682   0.992       .  S
O679        H683   0.992       .  S
C685        C686   1.409       .  A
C685        C690   1.415       .  A
C685        H695   1.083       .  S
C686        C691   1.501       .  S
C686        C687   1.408       .  A
C687        C688   1.404       .  A
C687        O692   1.373       .  S
C688        C689   1.410       .  A
C688        H693   1.084       .  S
C689        C690   1.414       .  A
C690        O694   1.372       .  S
C691        C696   1.407       .  A
C691        C700   1.410       .  A
O692        H708   0.992       .  S
O694        H705   0.991       .  S
C696        C697   1.404       .  A
C696        O701   1.373       .  S
C697        C698   1.412       .  A
C697        H702   1.083       .  S
C698        C699   1.413       .  A
C699        C700   1.414       .  A
C699        O703   1.371       .  S
C700        H704   1.083       .  S
O701        H706   0.992       .  S
O703        H707   0.992       .  S
C709        C710   1.402       .  A
C709        C714   1.400       .  A
C709        H719   1.083       .  S
C710        C715   1.505       .  S
C710        C711   1.416       .  A
C711        C712   1.415       .  A
C711        O716   1.371       .  S
C712        C713   1.409       .  A
C712        H717   1.083       .  S
C713        C714   1.417       .  A
C714        O718   1.372       .  S
C715        C720   1.411       .  A
C715        C724   1.410       .  A
O716        H732   0.992       .  S
O718        H729   0.991       .  S
C720        C721   1.403       .  A
C720        O725   1.372       .  S
C721        C722   1.407       .  A
C721        H726   1.084       .  S
C722        C723   1.415       .  A
C723        C724   1.413       .  A
C723        O727   1.371       .  S
C724        H728   1.083       .  S
O725        H730   0.992       .  S
O727        H731   0.991       .  S
C733        C734   1.407       .  A
C733        C738   1.407       .  A
C733        H743   1.083       .  S
C734        C739   1.487       .  S
C734        C735   1.406       .  A
C735        C736   1.394       .  A
C735        O740   1.372       .  S
C736        C737   1.409       .  A
C736        H741   1.083       .  S
C737        C738   1.412       .  A
C738        O742   1.371       .  S
C739        C744   1.406       .  A
C739        C748   1.407       .  A
O740        H756   0.992       .  S
O742        H753   0.992       .  S
C744        C745   1.400       .  A
C744        O749   1.372       .  S
C745        C746   1.408       .  A
C745        H750   1.084       .  S
C746        C747   1.410       .  A
C747        C748   1.403       .  A
C747        O751   1.371       .  S
C748        H752   1.084       .  S
O749        H754   0.992       .  S
O751        H755   0.992       .  S
C757        C758   1.403       .  A
C757        C762   1.404       .  A
C757        H767   1.084       .  S
C758        C763   1.479       .  S
C758        C759   1.403       .  A
C759        C760   1.398       .  A
C759        O764   1.372       .  S
C760        C761   1.410       .  A
C760        H765   1.083       .  S
C761        C762   1.414       .  A
C762        O766   1.371       .  S
C763        C768   1.406       .  A
C763        C772   1.398       .  A
O764        H780   0.992       .  S
O766        H777   0.992       .  S
C768        C769   1.403       .  A
C768        O773   1.371       .  S
C769        C770   1.408   1_554  A
C769        H774   1.083   1_554  S
C770        C771   1.419   1_556  A
C771        C772   1.400       .  A
C771        O775   1.372       .  S
C772        H776   1.084       .  S
O773        H778   0.992       .  S
O775        H779   0.992       .  S
C781        C782   1.398       .  A
C781        C786   1.400       .  A
C781        H791   1.084       .  S
C782        C787   1.468       .  S
C782        C783   1.406       .  A
C783        C784   1.394       .  A
C783        O788   1.372       .  S
C784        C785   1.402       .  A
C784        H789   1.084       .  S
C785        C786   1.415       .  A
C786        O790   1.371       .  S
C787        C792   1.405       .  A
C787        C796   1.400       .  A
O788        H804   0.992       .  S
O790        H801   0.992       .  S
C792        C793   1.397       .  A
C792        O797   1.372       .  S
C793        C794   1.401       .  A
C793        H798   1.084       .  S
C794        C795   1.408       .  A
C795        C796   1.397       .  A
C795        O799   1.372       .  S
C796        H800   1.084       .  S
O797        H802   0.992       .  S
O799        H803   0.991       .  S
C805        C806   1.408       .  A
C805        C810   1.409       .  A
C805        H815   1.083       .  S
C806        C811   1.503       .  S
C806        C807   1.411       .  A
C807        C808   1.404       .  A
C807        O812   1.372       .  S
C808        C809   1.409       .  A
C808        H813   1.084       .  S
C809        C810   1.414       .  A
C810        O814   1.370       .  S
C811        C816   1.415       .  A
C811        C820   1.403       .  A
O812        H828   0.992       .  S
O814        H825   0.991       .  S
C816        C817   1.411       .  A
C816        O821   1.371       .  S
C817        C818   1.407       .  A
C817        H822   1.083       .  S
C818        C819   1.418       .  A
C819        C820   1.404       .  A
C819        O823   1.373       .  S
C820        H824   1.083       .  S
O821        H826   0.992       .  S
O823        H827   0.992       .  S
C829        C830   1.410       .  A
C829        C834   1.417       .  A
C829        H839   1.083       .  S
C830        C835   1.490       .  S
C830        C831   1.399       .  A
C831        C832   1.396       .  A
C831        O836   1.372       .  S
C832        C833   1.417       .  A
C832        H837   1.083       .  S
C833        C834   1.413       .  A
C834        O838   1.371       .  S
C835        C840   1.405       .  A
C835        C844   1.405       .  A
O836        H852   0.992       .  S
O838        H849   0.992       .  S
C840        C841   1.402       .  A
C840        O845   1.372       .  S
C841        C842   1.411       .  A
C841        H846   1.084       .  S
C842        C843   1.415       .  A
C843        C844   1.410       .  A
C843        O847   1.370       .  S
C844        H848   1.083       .  S
O845        H850   0.992       .  S
O847        H851   0.991       .  S
C853        C854   1.401       .  A
C853        C858   1.400       .  A
C853        H863   1.084       .  S
C854        C859   1.482       .  S
C854        C855   1.407       .  A
C855        C856   1.406   1_554  A
C855        O860   1.372       .  S
C856        C857   1.408       .  A
C856        H861   1.084       .  S
C857        C858   1.412   1_556  A
C858        O862   1.372       .  S
C859        C864   1.404       .  A
C859        C868   1.406       .  A
O860        H876   0.992       .  S
O862        H873   0.992       .  S
C864        C865   1.398       .  A
C864        O869   1.372       .  S
C865        C866   1.407       .  A
C865        H870   1.084       .  S
C866        C867   1.410       .  A
C867        C868   1.405       .  A
C867        O871   1.370       .  S
C868        H872   1.083       .  S
O869        H874   0.992       .  S
O871        H875   0.992       .  S
C877        C878   1.402       .  A
C877        C882   1.400       .  A
C877        H887   1.084       .  S
C878        C883   1.491       .  S
C878        C879   1.412       .  A
C879        C880   1.404       .  A
C879        O884   1.371       .  S
C880        C881   1.407       .  A
C880        H885   1.083       .  S
C881        C882   1.416       .  A
C882        O886   1.372       .  S
C883        C888   1.414       .  A
C883        C892   1.401       .  A
O884        H900   0.992       .  S
O886        H897   0.992       .  S
C888        C889   1.406       .  A
C888        O893   1.371       .  S
C889        C890   1.404       .  A
C889        H894   1.084       .  S
C890        C891   1.412       .  A
C891        C892   1.398       .  A
C891        O895   1.373       .  S
C892        H896   1.083       .  S
O893        H898   0.992       .  S
O895        H899   0.992       .  S
C901        C902   1.397       .  A
C901        C906   1.400       .  A
C901        H911   1.084       .  S
C902        C907   1.470       .  S
C902        C903   1.407       .  A
C903        C904   1.394       .  A
C903        O908   1.372       .  S
C904        C905   1.404       .  A
C904        H909   1.083       .  S
C905        C906   1.418       .  A
C906        O910   1.372       .  S
C907        C912   1.406       .  A
C907        C916   1.400       .  A
O908        H924   0.992       .  S
O910        H921   0.992       .  S
C912        C913   1.400       .  A
C912        O917   1.372       .  S
C913        C914   1.404       .  A
C913        H918   1.084       .  S
C914        C915   1.408       .  A
C915        C916   1.396       .  A
C915        O919   1.373       .  S
C916        H920   1.084       .  S
O917        H922   0.992       .  S
O919        H923   0.992       .  S
C925        C926   1.399       .  A
C925        C930   1.401       .  A
C925        H935   1.083       .  S
C926        C931   1.473       .  S
C926        C927   1.406       .  A
C927        C928   1.393       .  A
C927        O932   1.372       .  S
C928        C929   1.406       .  A
C928        H933   1.083       .  S
C929        C930   1.416       .  A
C930        O934   1.371       .  S
C931        C936   1.407       .  A
C931        C940   1.401       .  A
O932        H948   0.992       .  S
O934        H945   0.992       .  S
C936        C937   1.400       .  A
C936        O941   1.371       .  S
C937        C938   1.403       .  A
C937        H942   1.084       .  S
C938        C939   1.408       .  A
C939        C940   1.394       .  A
C939        O943   1.372       .  S
C940        H944   1.084       .  S
O941        H946   0.991       .  S
O943        H947   0.992       .  S
C949        C950   1.406       .  A
C949        C954   1.404       .  A
C949        H959   1.083       .  S
C950        C955   1.507       .  S
C950        C951   1.415       .  A
C951        C952   1.414       .  A
C951        O956   1.373       .  S
C952        C953   1.409       .  A
C952        H957   1.083       .  S
C953        C954   1.413       .  A
C954        O958   1.372       .  S
C955        C960   1.416       .  A
C955        C964   1.403       .  A
O956        H972   0.992       .  S
O958        H969   0.992       .  S
C960        C961   1.413       .  A
C960        O965   1.371       .  S
C961        C962   1.409       .  A
C961        H966   1.083       .  S
C962        C963   1.419       .  A
C963        C964   1.404       .  A
C963        O967   1.372       .  S
C964        H968   1.084       .  S
O965        H970   0.992       .  S
O967        H971   0.992       .  S
C973        C974   1.398       .  A
C973        C978   1.398       .  A
C973        H983   1.084       .  S
C974        C979   1.479       .  S
C974        C975   1.411       .  A
C975        C976   1.397       .  A
C975        O980   1.372       .  S
C976        C977   1.405       .  A
C976        H981   1.083       .  S
C977        C978   1.418       .  A
C978        O982   1.371       .  S
C979        C984   1.410       .  A
C979        C988   1.403       .  A
O980        H996   0.992       .  S
O982        H993   0.992       .  S
C984        C985   1.399       .  A
C984        O989   1.372       .  S
C985        C986   1.401       .  A
C985        H990   1.084       .  S
C986        C987   1.409       .  A
C987        C988   1.395       .  A
C987        O991   1.372       .  S
C988        H992   1.084       .  S
O989        H994   0.992       .  S
O991        H995   0.992       .  S
C997        C998   1.400       .  A
C997       C1002   1.399       .  A
C997       H1007   1.084       .  S
C998       C1003   1.471       .  S
C998        C999   1.405       .  A
C999       C1000   1.398       .  A
C999       O1004   1.372       .  S
C1000      C1001   1.404       .  A
C1000      H1005   1.084       .  S
C1001      C1002   1.411       .  A
C1002      O1006   1.372       .  S
C1003      C1008   1.406       .  A
C1003      C1012   1.399       .  A
O1004      H1020   0.992       .  S
O1006      H1017   0.991       .  S
C1008      C1009   1.394       .  A
C1008      O1013   1.372       .  S
C1009      C1010   1.403       .  A
C1009      H1014   1.084       .  S
C1010      C1011   1.415       .  A
C1011      C1012   1.402       .  A
C1011      O1015   1.372       .  S
C1012      H1016   1.083       .  S
O1013      H1018   0.992       .  S
O1015      H1019   0.992       .  S
C1021      C1022   1.408       .  A
C1021      C1026   1.407       .  A
C1021      H1031   1.083       .  S
C1022      C1027   1.510       .  S
C1022      C1023   1.415       .  A
C1023      C1024   1.412       .  A
C1023      O1028   1.371       .  S
C1024      C1025   1.408       .  A
C1024      H1029   1.083       .  S
C1025      C1026   1.413       .  A
C1026      O1030   1.372       .  S
C1027      C1032   1.410       .  A
C1027      C1036   1.412       .  A
O1028      H1044   0.992       .  S
O1030      H1041   0.992       .  S
C1032      C1033   1.406       .  A
C1032      O1037   1.372       .  S
C1033      C1034   1.413       .  A
C1033      H1038   1.083       .  S
C1034      C1035   1.413       .  A
C1035      C1036   1.414       .  A
C1035      O1039   1.370       .  S
C1036      H1040   1.083       .  S
O1037      H1042   0.992       .  S
O1039      H1043   0.992       .  S
C1045      C1046   1.396       .  A
C1045      C1050   1.393       .  A
C1045      H1055   1.084       .  S
C1046      C1051   1.480       .  S
C1046      C1047   1.409       .  A
C1047      C1048   1.407       .  A
C1047      O1052   1.371       .  S
C1048      C1049   1.409       .  A
C1048      H1053   1.083       .  S
C1049      C1050   1.420       .  A
C1050      O1054   1.372       .  S
C1051      C1056   1.408       .  A
C1051      C1060   1.397       .  A
O1052      H1068   0.992       .  S
O1054      H1065   0.992       .  S
C1056      C1057   1.404       .  A
C1056      O1061   1.372       .  S
C1057      C1058   1.407       .  A
C1057      H1062   1.083       .  S
C1058      C1059   1.420       .  A
C1059      C1060   1.398       .  A
C1059      O1063   1.372       .  S
C1060      H1064   1.084       .  S
O1061      H1066   0.992       .  S
O1063      H1067   0.992       .  S
C1069      C1070   1.398       .  A
C1069      C1074   1.397       .  A
C1069      H1079   1.084       .  S
C1070      C1075   1.481       .  S
C1070      C1071   1.408       .  A
C1071      C1072   1.404   1_554  A
C1071      O1076   1.372       .  S
C1072      C1073   1.408       .  A
C1072      H1077   1.083       .  S
C1073      C1074   1.418   1_556  A
C1074      O1078   1.371   1_554  S
C1075      C1080   1.403       .  A
C1075      C1084   1.406       .  A
O1076      H1092   0.992       .  S
O1078      H1089   0.992       .  S
C1080      C1081   1.394       .  A
C1080      O1085   1.372       .  S
C1081      C1082   1.411       .  A
C1081      H1086   1.083       .  S
C1082      C1083   1.412       .  A
C1083      C1084   1.405       .  A
C1083      O1087   1.371       .  S
C1084      H1088   1.084       .  S
O1085      H1090   0.992       .  S
O1087      H1091   0.991       .  S
C1093      C1094   1.404       .  A
C1093      C1098   1.399       .  A
C1093      H1103   1.084       .  S
C1094      C1099   1.485       .  S
C1094      C1095   1.411       .  A
C1095      C1096   1.403       .  A
C1095      O1100   1.372       .  S
C1096      C1097   1.404       .  A
C1096      H1101   1.084       .  S
C1097      C1098   1.407       .  A
C1098      O1102   1.373       .  S
C1099      C1104   1.407       .  A
C1099      C1108   1.404       .  A
O1100      H1116   0.992       .  S
O1102      H1113   0.992       .  S
C1104      C1105   1.401       .  A
C1104      O1109   1.371       .  S
C1105      C1106   1.410       .  A
C1105      H1110   1.083       .  S
C1106      C1107   1.412       .  A
C1107      C1108   1.398       .  A
C1107      O1111   1.372       .  S
C1108      H1112   1.084       .  S
O1109      H1114   0.992       .  S
O1111      H1115   0.992       .  S
C1117      C1118   1.407       .  A
C1117      C1122   1.405       .  A
C1117      H1127   1.083       .  S
C1118      C1123   1.516       .  S
C1118      C1119   1.419       .  A
C1119      C1120   1.419       .  A
C1119      O1124   1.372       .  S
C1120      C1121   1.409       .  A
C1120      H1125   1.083       .  S
C1121      C1122   1.415       .  A
C1122      O1126   1.373       .  S
C1123      C1128   1.418       .  A
C1123      C1132   1.407       .  A
O1124      H1140   0.992       .  S
O1126      H1137   0.992       .  S
C1128      C1129   1.418       .  A
C1128      O1133   1.372       .  S
C1129      C1130   1.410       .  A
C1129      H1134   1.083       .  S
C1130      C1131   1.414       .  A
C1131      C1132   1.405       .  A
C1131      O1135   1.373       .  S
C1132      H1136   1.083       .  S
O1133      H1138   0.992       .  S
O1135      H1139   0.992       .  S
C1141      C1142   1.411       .  A
C1141      C1146   1.413   1_455  A
C1141      H1151   1.083       .  S
C1142      C1147   1.509       .  S
C1142      C1143   1.412       .  A
C1143      C1144   1.403   1_556  A
C1143      O1148   1.372   1_556  S
C1144      C1145   1.410   1_454  A
C1144      H1149   1.084   1_455  S
C1145      C1146   1.413       .  A
C1146      O1150   1.371       .  S
C1147      C1152   1.416       .  A
C1147      C1156   1.406       .  A
O1148      H1164   0.992       .  S
O1150      H1161   0.991       .  S
C1152      C1153   1.413       .  A
C1152      O1157   1.371       .  S
C1153      C1154   1.408       .  A
C1153      H1158   1.083       .  S
C1154      C1155   1.415       .  A
C1155      C1156   1.404       .  A
C1155      O1159   1.373       .  S
C1156      H1160   1.083       .  S
O1157      H1162   0.992   1_455  S
O1159      H1163   0.992       .  S
C1165      C1166   1.403       .  A
C1165      C1170   1.403       .  A
C1165      H1175   1.083       .  S
C1166      C1171   1.503       .  S
C1166      C1167   1.415       .  A
C1167      C1168   1.411       .  A
C1167      O1172   1.371       .  S
C1168      C1169   1.408       .  A
C1168      H1173   1.083       .  S
C1169      C1170   1.417       .  A
C1170      O1174   1.373       .  S
C1171      C1176   1.410       .  A
C1171      C1180   1.409       .  A
O1172      H1188   0.992       .  S
O1174      H1185   0.992       .  S
C1176      C1177   1.404       .  A
C1176      O1181   1.372       .  S
C1177      C1178   1.409       .  A
C1177      H1182   1.084       .  S
C1178      C1179   1.413       .  A
C1179      C1180   1.411       .  A
C1179      O1183   1.370       .  S
C1180      H1184   1.083       .  S
O1181      H1186   0.992       .  S
O1183      H1187   0.991       .  S
C1189      C1190   1.404       .  A
C1189      C1194   1.402       .  A
C1189      H1199   1.083       .  S
C1190      C1195   1.508       .  S
C1190      C1191   1.417       .  A
C1191      C1192   1.416       .  A
C1191      O1196   1.373   1_455  S
C1192      C1193   1.406       .  A
C1192      H1197   1.083       .  S
C1193      C1194   1.416       .  A
C1194      O1198   1.373       .  S
C1195      C1200   1.416       .  A
C1195      C1204   1.407       .  A
O1196      H1212   0.992       .  S
O1198      H1209   0.992       .  S
C1200      C1201   1.414   1_455  A
C1200      O1205   1.373       .  S
C1201      C1202   1.407       .  A
C1201      H1206   1.083       .  S
C1202      C1203   1.412       .  A
C1203      C1204   1.402   1_655  A
C1203      O1207   1.372       .  S
C1204      H1208   1.083       .  S
O1205      H1210   0.992   1_455  S
O1207      H1211   0.992   1_655  S
C1213      C1214   1.407       .  A
C1213      C1218   1.406       .  A
C1213      H1223   1.083       .  S
C1214      C1219   1.487       .  S
C1214      C1215   1.405       .  A
C1215      C1216   1.400       .  A
C1215      O1220   1.372       .  S
C1216      C1217   1.409       .  A
C1216      H1221   1.083       .  S
C1217      C1218   1.411       .  A
C1218      O1222   1.371       .  S
C1219      C1224   1.409       .  A
C1219      C1228   1.401       .  A
O1220      H1236   0.992       .  S
O1222      H1233   0.992       .  S
C1224      C1225   1.404       .  A
C1224      O1229   1.371       .  S
C1225      C1226   1.408       .  A
C1225      H1230   1.083       .  S
C1226      C1227   1.416       .  A
C1227      C1228   1.401       .  A
C1227      O1231   1.372       .  S
C1228      H1232   1.084       .  S
O1229      H1234   0.992       .  S
O1231      H1235   0.992       .  S
C1237      C1238   1.405       .  A
C1237      C1242   1.404       .  A
C1237      H1247   1.084       .  S
C1238      C1243   1.486       .  S
C1238      C1239   1.406       .  A
C1239      C1240   1.398       .  A
C1239      O1244   1.372       .  S
C1240      C1241   1.409       .  A
C1240      H1245   1.083       .  S
C1241      C1242   1.415       .  A
C1242      O1246   1.371       .  S
C1243      C1248   1.405       .  A
C1243      C1252   1.406       .  A
O1244      H1260   0.992       .  S
O1246      H1257   0.992       .  S
C1248      C1249   1.397       .  A
C1248      O1253   1.372       .  S
C1249      C1250   1.410       .  A
C1249      H1254   1.083       .  S
C1250      C1251   1.413       .  A
C1251      C1252   1.405       .  A
C1251      O1255   1.371       .  S
C1252      H1256   1.083       .  S
O1253      H1258   0.992       .  S
O1255      H1259   0.992       .  S
C1261      C1262   1.412       .  A
C1261      C1266   1.413       .  A
C1261      H1271   1.083       .  S
C1262      C1267   1.503       .  S
C1262      C1263   1.410       .  A
C1263      C1264   1.397       .  A
C1263      O1268   1.372       .  S
C1264      C1265   1.408       .  A
C1264      H1269   1.084       .  S
C1265      C1266   1.412       .  A
C1266      O1270   1.371       .  S
C1267      C1272   1.414       .  A
C1267      C1276   1.405       .  A
O1268      H1284   0.992       .  S
O1270      H1281   0.991       .  S
C1272      C1273   1.412       .  A
C1272      O1277   1.372       .  S
C1273      C1274   1.408       .  A
C1273      H1278   1.083       .  S
C1274      C1275   1.413       .  A
C1275      C1276   1.399       .  A
C1275      O1279   1.372       .  S
C1276      H1280   1.083       .  S
O1277      H1282   0.992       .  S
O1279      H1283   0.992       .  S
C1285      C1286   1.407       .  A
C1285      C1290   1.412       .  A
C1285      H1295   1.083       .  S
C1286      C1291   1.497       .  S
C1286      C1287   1.406       .  A
C1287      C1288   1.404       .  A
C1287      O1292   1.372       .  S
C1288      C1289   1.411       .  A
C1288      H1293   1.084       .  S
C1289      C1290   1.414       .  A
C1290      O1294   1.371       .  S
C1291      C1296   1.406       .  A
C1291      C1300   1.407       .  A
O1292      H1308   0.991       .  S
O1294      H1305   0.992       .  S
C1296      C1297   1.404       .  A
C1296      O1301   1.372       .  S
C1297      C1298   1.414       .  A
C1297      H1302   1.083       .  S
C1298      C1299   1.414       .  A
C1299      C1300   1.412       .  A
C1299      O1303   1.370       .  S
C1300      H1304   1.083       .  S
O1301      H1306   0.992       .  S
O1303      H1307   0.992       .  S
C1309      C1310   1.404       .  A
C1309      C1314   1.401       .  A
C1309      H1319   1.083       .  S
C1310      C1315   1.482       .  S
C1310      C1311   1.410       .  A
C1311      C1312   1.397       .  A
C1311      O1316   1.372       .  S
C1312      C1313   1.401       .  A
C1312      H1317   1.084       .  S
C1313      C1314   1.409       .  A
C1314      O1318   1.372       .  S
C1315      C1320   1.406       .  A
C1315      C1324   1.403       .  A
O1316      H1332   0.992       .  S
O1318      H1329   0.991       .  S
C1320      C1321   1.404       .  A
C1320      O1325   1.372       .  S
C1321      C1322   1.411       .  A
C1321      H1326   1.083       .  S
C1322      C1323   1.411       .  A
C1323      C1324   1.394       .  A
C1323      O1327   1.372       .  S
C1324      H1328   1.084       .  S
O1325      H1330   0.992       .  S
O1327      H1331   0.992       .  S
C1333      C1334   1.406       .  A
C1333      C1338   1.406       .  A
C1333      H1343   1.083       .  S
C1334      C1339   1.510       .  S
C1334      C1335   1.415       .  A
C1335      C1336   1.416       .  A
C1335      O1340   1.372       .  S
C1336      C1337   1.409       .  A
C1336      H1341   1.083       .  S
C1337      C1338   1.415       .  A
C1338      O1342   1.372       .  S
C1339      C1344   1.416       .  A
C1339      C1348   1.403       .  A
O1340      H1356   0.992       .  S
O1342      H1353   0.992       .  S
C1344      C1345   1.415       .  A
C1344      O1349   1.371       .  S
C1345      C1346   1.409       .  A
C1345      H1350   1.083       .  S
C1346      C1347   1.420       .  A
C1347      C1348   1.406       .  A
C1347      O1351   1.373       .  S
C1348      H1352   1.084       .  S
O1349      H1354   0.992       .  S
O1351      H1355   0.992       .  S
C1357      C1358   1.398       .  A
C1357      C1362   1.401       .  A
C1357      H1367   1.084       .  S
C1358      C1363   1.473       .  S
C1358      C1359   1.406       .  A
C1359      C1360   1.396   1_556  A
C1359      O1364   1.373   1_556  S
C1360      C1361   1.404   1_554  A
C1360      H1365   1.083       .  S
C1361      C1362   1.418       .  A
C1362      O1366   1.372       .  S
C1363      C1368   1.405       .  A
C1363      C1372   1.402       .  A
O1364      H1380   0.992       .  S
O1366      H1377   0.992       .  S
C1368      C1369   1.396       .  A
C1368      O1373   1.373       .  S
C1369      C1370   1.402       .  A
C1369      H1374   1.084       .  S
C1370      C1371   1.410       .  A
C1371      C1372   1.401       .  A
C1371      O1375   1.372       .  S
C1372      H1376   1.084       .  S
O1373      H1378   0.992       .  S
O1375      H1379   0.992       .  S
C1381      C1382   1.402       .  A
C1381      C1386   1.401       .  A
C1381      H1391   1.083       .  S
C1382      C1387   1.506       .  S
C1382      C1383   1.417       .  A
C1383      C1384   1.414       .  A
C1383      O1388   1.371       .  S
C1384      C1385   1.407       .  A
C1384      H1389   1.083       .  S
C1385      C1386   1.418       .  A
C1386      O1390   1.372       .  S
C1387      C1392   1.412       .  A
C1387      C1396   1.410       .  A
O1388      H1404   0.992       .  S
O1390      H1401   0.991       .  S
C1392      C1393   1.405       .  A
C1392      O1397   1.372   1_556  S
C1393      C1394   1.408       .  A
C1393      H1398   1.084   1_556  S
C1394      C1395   1.413       .  A
C1395      C1396   1.411       .  A
C1395      O1399   1.371       .  S
C1396      H1400   1.083       .  S
O1397      H1402   0.992       .  S
O1399      H1403   0.991       .  S
C1405      C1406   1.404       .  A
C1405      C1410   1.403       .  A
C1405      H1415   1.084       .  S
C1406      C1411   1.478       .  S
C1406      C1407   1.402       .  A
C1407      C1408   1.397       .  A
C1407      O1412   1.372       .  S
C1408      C1409   1.410       .  A
C1408      H1413   1.083       .  S
C1409      C1410   1.412       .  A
C1410      O1414   1.371       .  S
C1411      C1416   1.402       .  A
C1411      C1420   1.404       .  A
O1412      H1428   0.992       .  S
O1414      H1425   0.992       .  S
C1416      C1417   1.395       .  A
C1416      O1421   1.372       .  S
C1417      C1418   1.409       .  A
C1417      H1422   1.084       .  S
C1418      C1419   1.412       .  A
C1419      C1420   1.405       .  A
C1419      O1423   1.371       .  S
C1420      H1424   1.083       .  S
O1421      H1426   0.992       .  S
O1423      H1427   0.992       .  S
C1429      C1430   1.403       .  A
C1429      C1434   1.403       .  A
C1429      H1439   1.084       .  S
C1430      C1435   1.481       .  S
C1430      C1431   1.404       .  A
C1431      C1432   1.401       .  A
C1431      O1436   1.372       .  S
C1432      C1433   1.410       .  A
C1432      H1437   1.083       .  S
C1433      C1434   1.414       .  A
C1434      O1438   1.371       .  S
C1435      C1440   1.409       .  A
C1435      C1444   1.396       .  A
O1436      H1452   0.992       .  S
O1438      H1449   0.992       .  S
C1440      C1441   1.408       .  A
C1440      O1445   1.371       .  S
C1441      C1442   1.409       .  A
C1441      H1446   1.083       .  S
C1442      C1443   1.420       .  A
C1443      C1444   1.396       .  A
C1443      O1447   1.372       .  S
C1444      H1448   1.084       .  S
O1445      H1450   0.992       .  S
O1447      H1451   0.992       .  S
C1453      C1454   1.411       .  A
C1453      C1458   1.413       .  A
C1453      H1463   1.083       .  S
C1454      C1459   1.504       .  S
C1454      C1455   1.410       .  A
C1455      C1456   1.400       .  A
C1455      O1460   1.372       .  S
C1456      C1457   1.409       .  A
C1456      H1461   1.084       .  S
C1457      C1458   1.413       .  A
C1458      O1462   1.371       .  S
C1459      C1464   1.415       .  A
C1459      C1468   1.404       .  A
O1460      H1476   0.992       .  S
O1462      H1473   0.992       .  S
C1464      C1465   1.412       .  A
C1464      O1469   1.371       .  S
C1465      C1466   1.409       .  A
C1465      H1470   1.083       .  S
C1466      C1467   1.415       .  A
C1467      C1468   1.401       .  A
C1467      O1471   1.372       .  S
C1468      H1472   1.083       .  S
O1469      H1474   0.992       .  S
O1471      H1475   0.992       .  S
C1477      C1478   1.403       .  A
C1477      C1482   1.397       .  A
C1477      H1487   1.083       .  S
C1478      C1483   1.484       .  S
C1478      C1479   1.407       .  A
C1479      C1480   1.403       .  A
C1479      O1484   1.371       .  S
C1480      C1481   1.410       .  A
C1480      H1485   1.083       .  S
C1481      C1482   1.413       .  A
C1482      O1486   1.372       .  S
C1483      C1488   1.410       .  A
C1483      C1492   1.404       .  A
O1484      H1500   0.992       .  S
O1486      H1497   0.992       .  S
C1488      C1489   1.401       .  A
C1488      O1493   1.373       .  S
C1489      C1490   1.402       .  A
C1489      H1494   1.084       .  S
C1490      C1491   1.409       .  A
C1491      C1492   1.400       .  A
C1491      O1495   1.371       .  S
C1492      H1496   1.084       .  S
O1493      H1498   0.992       .  S
O1495      H1499   0.991       .  S
C1501      C1502   1.405       .  A
C1501      C1506   1.400       .  A
C1501      H1511   1.083       .  S
C1502      C1507   1.502       .  S
C1502      C1503   1.414       .  A
C1503      C1504   1.412       .  A
C1503      O1508   1.373       .  S
C1504      C1505   1.407       .  A
C1504      H1509   1.083       .  S
C1505      C1506   1.413       .  A
C1506      O1510   1.372       .  S
C1507      C1512   1.416       .  A
C1507      C1516   1.403       .  A
O1508      H1524   0.992       .  S
O1510      H1521   0.992       .  S
C1512      C1513   1.410       .  A
C1512      O1517   1.371       .  S
C1513      C1514   1.406       .  A
C1513      H1518   1.083       .  S
C1514      C1515   1.416       .  A
C1515      C1516   1.401       .  A
C1515      O1519   1.373       .  S
C1516      H1520   1.083       .  S
O1517      H1522   0.992       .  S
O1519      H1523   0.992       .  S
C1525      C1526   1.405       .  A
C1525      C1530   1.396       .  A
C1525      H1535   1.083       .  S
C1526      C1531   1.481       .  S
C1526      C1527   1.409       .  A
C1527      C1528   1.396       .  A
C1527      O1532   1.371       .  S
C1528      C1529   1.402       .  A
C1528      H1533   1.084       .  S
C1529      C1530   1.406       .  A
C1530      O1534   1.372       .  S
C1531      C1536   1.405       .  A
C1531      C1540   1.405       .  A
O1532      H1548   0.992       .  S
O1534      H1545   0.991       .  S
C1536      C1537   1.399       .  A
C1536      O1541   1.373       .  S
C1537      C1538   1.409       .  A
C1537      H1542   1.083       .  S
C1538      C1539   1.412       .  A
C1539      C1540   1.397       .  A
C1539      O1543   1.372       .  S
C1540      H1544   1.084       .  S
O1541      H1546   0.992       .  S
O1543      H1547   0.992       .  S
C1549      C1550   1.409       .  A
C1549      C1554   1.412       .  A
C1549      H1559   1.083       .  S
C1550      C1555   1.497       .  S
C1550      C1551   1.406       .  A
C1551      C1552   1.402       .  A
C1551      O1556   1.373       .  S
C1552      C1553   1.412       .  A
C1552      H1557   1.083       .  S
C1553      C1554   1.413       .  A
C1554      O1558   1.371       .  S
C1555      C1560   1.409       .  A
C1555      C1564   1.407       .  A
O1556      H1572   0.992       .  S
O1558      H1569   0.992       .  S
C1560      C1561   1.403       .  A
C1560      O1565   1.372       .  S
C1561      C1562   1.409       .  A
C1561      H1566   1.084       .  S
C1562      C1563   1.414       .  A
C1563      C1564   1.410       .  A
C1563      O1567   1.371       .  S
C1564      H1568   1.083       .  S
O1565      H1570   0.992       .  S
O1567      H1571   0.991       .  S
C1573      C1574   1.401       .  A
C1573      C1578   1.397       .  A
C1573      H1583   1.084       .  S
C1574      C1579   1.471       .  S
C1574      C1575   1.406       .  A
C1575      C1576   1.398       .  A
C1575      O1580   1.371       .  S
C1576      C1577   1.403       .  A
C1576      H1581   1.084       .  S
C1577      C1578   1.408       .  A
C1578      O1582   1.372       .  S
C1579      C1584   1.404       .  A
C1579      C1588   1.403       .  A
O1580      H1596   0.992       .  S
O1582      H1593   0.992       .  S
C1584      C1585   1.400       .  A
C1584      O1589   1.371       .  S
C1585      C1586   1.405       .  A
C1585      H1590   1.084       .  S
C1586      C1587   1.406   1_556  A
C1587      C1588   1.397   1_554  A
C1587      O1591   1.372       .  S
C1588      H1592   1.084   1_556  S
O1589      H1594   0.992       .  S
O1591      H1595   0.992       .  S
C1597      C1598   1.410       .  A
C1597      C1602   1.411       .  A
C1597      H1607   1.083       .  S
C1598      C1603   1.502       .  S
C1598      C1599   1.410       .  A
C1599      C1600   1.401       .  A
C1599      O1604   1.372       .  S
C1600      C1601   1.410       .  A
C1600      H1605   1.084       .  S
C1601      C1602   1.412       .  A
C1602      O1606   1.371       .  S
C1603      C1608   1.414       .  A
C1603      C1612   1.405       .  A
O1604      H1620   0.992       .  S
O1606      H1617   0.992       .  S
C1608      C1609   1.411       .  A
C1608      O1613   1.372       .  S
C1609      C1610   1.407       .  A
C1609      H1614   1.083       .  S
C1610      C1611   1.413   1_556  A
C1611      C1612   1.401   1_554  A
C1611      O1615   1.372       .  S
C1612      H1616   1.083   1_556  S
O1613      H1618   0.992       .  S
O1615      H1619   0.992       .  S
C1621      C1622   1.406       .  A
C1621      C1626   1.407       .  A
C1621      H1631   1.083       .  S
C1622      C1627   1.484       .  S
C1622      C1623   1.404       .  A
C1623      C1624   1.396       .  A
C1623      O1628   1.372       .  S
C1624      C1625   1.410       .  A
C1624      H1629   1.083       .  S
C1625      C1626   1.412       .  A
C1626      O1630   1.371       .  S
C1627      C1632   1.405       .  A
C1627      C1636   1.404       .  A
O1628      H1644   0.992       .  S
O1630      H1641   0.992       .  S
C1632      C1633   1.401       .  A
C1632      O1637   1.372       .  S
C1633      C1634   1.409       .  A
C1633      H1638   1.083       .  S
C1634      C1635   1.413       .  A
C1635      C1636   1.403       .  A
C1635      O1639   1.371       .  S
C1636      H1640   1.084       .  S
O1637      H1642   0.992       .  S
O1639      H1643   0.992       .  S
C1645      C1646   1.399       .  A
C1645      C1650   1.399       .  A
C1645      H1655   1.084       .  S
C1646      C1651   1.488       .  S
C1646      C1647   1.409       .  A
C1647      C1648   1.408       .  A
C1647      O1652   1.373       .  S
C1648      C1649   1.409       .  A
C1648      H1653   1.083       .  S
C1649      C1650   1.418       .  A
C1650      O1654   1.372       .  S
C1651      C1656   1.406       .  A
C1651      C1660   1.406       .  A
O1652      H1668   0.992       .  S
O1654      H1665   0.992       .  S
C1656      C1657   1.399       .  A
C1656      O1661   1.372       .  S
C1657      C1658   1.409       .  A
C1657      H1662   1.083       .  S
C1658      C1659   1.414       .  A
C1659      C1660   1.406       .  A
C1659      O1663   1.371       .  S
C1660      H1664   1.084       .  S
O1661      H1666   0.992       .  S
O1663      H1667   0.992       .  S
C1669      C1670   1.401       .  A
C1669      C1674   1.395       .  A
C1669      H1679   1.084       .  S
C1670      C1675   1.475       .  S
C1670      C1671   1.407       .  A
C1671      C1672   1.401       .  A
C1671      O1676   1.372       .  S
C1672      C1673   1.405       .  A
C1672      H1677   1.084       .  S
C1673      C1674   1.407       .  A
C1674      O1678   1.371       .  S
C1675      C1680   1.402       .  A
C1675      C1684   1.402       .  A
O1676      H1692   0.991       .  S
O1678      H1689   0.992       .  S
C1680      C1681   1.399       .  A
C1680      O1685   1.371       .  S
C1681      C1682   1.411       .  A
C1681      H1686   1.083       .  S
C1682      C1683   1.412   1_556  A
C1683      C1684   1.397   1_554  A
C1683      O1687   1.372       .  S
C1684      H1688   1.084   1_556  S
O1685      H1690   0.992       .  S
O1687      H1691   0.992       .  S
