geometry optimzed in LAMMPS
_audit_creation_date              2020-12-01 
_audit_creation_method            'lammps2cif' 
_symmetry_space_group_name_H-M    'P1' 
_symmetry_Int_Tables_number       1 
_symmetry_cell_setting            triclinic 
loop_ 
_symmetry_equiv_pos_as_xyz 
  x,y,z 
_cell_length_a                    53.71908957 
_cell_length_b                    54.0404024298791 
_cell_length_c                    44.34531519724666 
_cell_angle_alpha                 89.42942328910333 
_cell_angle_beta                  89.75918746801078 
_cell_angle_gamma                 90.0235113883123 
loop_ 
_atom_site_label 
_atom_site_type_symbol 
_atom_site_fract_x 
_atom_site_fract_y 
_atom_site_fract_z 
_atom_site_charge 
O1          O  0.38426801  0.03216960  0.27856582    -0.86200
O2          O  0.37595878  0.98304720  0.28273167    -0.83300
C3          C  0.37134780  0.96102174  0.27631628     0.97300
O4          O  0.36044157  0.95630214  0.25157432    -0.83300
O5          O  0.31832889  0.98668514  0.24328396    -0.85900
C6          C  0.30515873  0.00564710  0.23889220     1.01800
O7          O  0.31450251  0.02393081  0.22493018    -0.78700
O8          O  0.34480697  0.03835939  0.27078256    -0.78900
C9          C  0.36263409  0.03640771  0.28887361     1.01700
O10         O  0.40903023  0.02443855  0.22125382    -0.86200
O11         O  0.40364500  0.97348217  0.22877179    -0.83300
C12         C  0.39620024  0.96324342  0.20480537     0.97300
O13         O  0.37621559  0.97019652  0.19279848    -0.83300
O14         O  0.33522731  0.99788983  0.18075380    -0.85900
C15         C  0.34538102  0.01673313  0.16809980     1.01700
O16         O  0.35444885  0.03386506  0.18356555    -0.78700
O17         O  0.38232044  0.05444619  0.22745884    -0.78900
C18         C  0.40346497  0.04701408  0.21861140     1.01700
Cr19       Cr  0.39161426  0.00356817  0.25139270     1.93700
Cr20       Cr  0.34805989  0.97973961  0.21824419     1.93200
Cr21       Cr  0.34988004  0.03583314  0.22705565     1.39100
O22         O  0.36341342  0.00622656  0.23177715    -1.24000
O23         O  0.38324401  0.02736361  0.02977890    -0.86200
O24         O  0.37180911  0.97965762  0.03115857    -0.83300
C25         C  0.36980232  0.95738390  0.02501047     0.97300
O26         O  0.36174704  0.95118137  0.49454022    -0.83300
O27         O  0.31880894  0.98123876  0.48414572    -0.85900
C28         C  0.30556905  0.00018641  0.48002537     1.01800
O29         O  0.31533488  0.01997937  0.47002519    -0.78700
O30         O  0.34393784  0.03316672  0.02159202    -0.78900
C31         C  0.36150231  0.03101609  0.04005947     1.01700
O32         O  0.40996541  0.02023506  0.47217646    -0.86200
O33         O  0.40388550  0.96912974  0.47629757    -0.83300
C34         C  0.39785795  0.96032670  0.45089177     0.97300
O35         O  0.37962036  0.96938437  0.43720140    -0.83300
O36         O  0.33864123  0.99654028  0.42481592    -0.85900
C37         C  0.34862689  0.01656211  0.41493194     1.01700
O38         O  0.35664779  0.03271282  0.43252427    -0.78700
O39         O  0.38314816  0.05030890  0.47860471    -0.78900
C40         C  0.40442989  0.04282499  0.46982149     1.01700
Cr41       Cr  0.39078810  0.99877456  0.49958801     1.93700
Cr42       Cr  0.35004100  0.97634011  0.46143525     1.93200
Cr43       Cr  0.35041804  0.03200256  0.47543005     1.39100
O44         O  0.36399774  0.00240526  0.47799139    -1.24000
O45         O  0.52180516  0.84877208  0.15124243    -0.86200
O46         O  0.50591331  0.81980467  0.10443976    -0.83300
C47         C  0.48589862  0.81206902  0.11639162     0.97300
O48         O  0.46783282  0.82644883  0.12018495    -0.83300
O49         O  0.44088685  0.87049050  0.12796911    -0.85900
C50         C  0.44697526  0.87970819  0.15316394     1.01800
O51         O  0.46946772  0.88001463  0.15974204    -0.78700
O52         O  0.51856661  0.88836293  0.15798898    -0.78900
C53         C  0.52143490  0.86682648  0.16895020     1.01700
O54         O  0.54127086  0.88529284  0.10720432    -0.86200
O55         O  0.52002173  0.85865959  0.06346013    -0.83300
C56         C  0.50238584  0.85152626  0.04720636     0.97300
O57         O  0.48238894  0.84276753  0.05879320    -0.83300
O58         O  0.45793493  0.88546812  0.06963572    -0.85900
C59         C  0.45071937  0.90491388  0.08212516     1.01700
O60         O  0.46067799  0.91123758  0.10690855    -0.78700
O61         O  0.51260365  0.91410368  0.10167595    -0.78900
C62         C  0.53483536  0.90694502  0.09883049     1.01700
Cr63       Cr  0.52057214  0.85401821  0.10694426     1.93700
Cr64       Cr  0.46422309  0.85661410  0.09530471     1.93200
Cr65       Cr  0.49037905  0.89704613  0.13027050     1.39100
O66         O  0.49180308  0.86954869  0.10997300    -1.24000
O67         O  0.52042321  0.84915387  0.40129804    -0.86200
O68         O  0.50813588  0.82041519  0.35322443    -0.83300
C69         C  0.48869888  0.81131317  0.36516632     0.97300
O70         O  0.46955130  0.82448347  0.36757903    -0.83300
O71         O  0.43933345  0.86658199  0.37470332    -0.85900
C72         C  0.44432961  0.87511949  0.40058665     1.01800
O73         O  0.46659449  0.87634661  0.40784510    -0.78700
O74         O  0.51462760  0.88820980  0.40939862    -0.78900
C75         C  0.51831082  0.86659160  0.41967059     1.01700
O76         O  0.53911088  0.88741248  0.35978275    -0.86200
O77         O  0.52132008  0.86050348  0.31368223    -0.83300
C78         C  0.50487452  0.85220079  0.29640795     0.97300
O79         O  0.48486682  0.84251600  0.30689940    -0.83300
O80         O  0.45726477  0.88362120  0.31781505    -0.85900
C81         C  0.44891942  0.90263228  0.33025936     1.01700
O82         O  0.45757381  0.90891641  0.35582384    -0.78700
O83         O  0.50940707  0.91513526  0.35379300    -0.78900
C84         C  0.53196014  0.90880633  0.35147653     1.01700
Cr85       Cr  0.52052212  0.85522215  0.35721671     1.93700
Cr86       Cr  0.46466164  0.85469140  0.34292840     1.93200
Cr87       Cr  0.48713858  0.89585068  0.38036329     1.39100
O88         O  0.49090753  0.86909402  0.35905396    -1.24000
O89         O  0.49317253  0.13521042  0.10972021    -0.86200
O90         O  0.54124897  0.14560973  0.10990625    -0.83300
C91         C  0.56363885  0.14489318  0.11622919     0.97300
O92         O  0.56989132  0.15386954  0.14149474    -0.83300
O93         O  0.54056734  0.19751588  0.14812235    -0.85900
C94         C  0.52188308  0.21119511  0.15213116     1.01800
O95         O  0.50298512  0.20255222  0.16566831    -0.78700
O96         O  0.48792565  0.17437669  0.11823243    -0.78900
C97         C  0.48934943  0.15695204  0.09972750     1.01700
O98         O  0.49876645  0.10819705  0.16556062    -0.86200
O99         O  0.55046110  0.11313145  0.16296828    -0.83300
C100        C  0.55936812  0.11973758  0.18837534     0.97300
O101        O  0.55233585  0.13961200  0.19976512    -0.83300
O102        O  0.52671627  0.18123463  0.20988739    -0.85900
C103        C  0.50753871  0.17098581  0.22177562     1.01700
O104        O  0.49030581  0.16266415  0.20565211    -0.78700
O105        O  0.46959192  0.13642021  0.16044395    -0.78900
C106        C  0.47629456  0.11465781  0.16797962     1.01700
Cr107      Cr  0.52094921  0.12676068  0.13823115     1.93700
Cr108      Cr  0.54554715  0.16776354  0.17357963     1.93200
Cr109      Cr  0.48929765  0.16817554  0.16226718     1.39100
O110        O  0.51844592  0.15372179  0.15909030    -1.24000
O111        O  0.49187460  0.13389070  0.35939341    -0.86200
O112        O  0.54004404  0.14409508  0.36068736    -0.83300
C113        C  0.56218187  0.14272631  0.36798989     0.97300
O114        O  0.56804801  0.15261635  0.39287246    -0.83300
O115        O  0.53835845  0.19663833  0.39805669    -0.85900
C116        C  0.51972466  0.21051447  0.40153284     1.01800
O117        O  0.50027183  0.20195349  0.41412931    -0.78700
O118        O  0.48664622  0.17308422  0.36703155    -0.78900
C119        C  0.48914854  0.15559473  0.34883677     1.01700
O120        O  0.49641069  0.10751077  0.41576215    -0.86200
O121        O  0.54811047  0.11209701  0.41425059    -0.83300
C122        C  0.55706780  0.11911210  0.43944601     0.97300
O123        O  0.54944803  0.13886108  0.45070832    -0.83300
O124        O  0.52343474  0.18077736  0.45941025    -0.85900
C125        C  0.50409380  0.17058584  0.47094512     1.01700
O126        O  0.48701662  0.16231681  0.45453745    -0.78700
O127        O  0.46725989  0.13537362  0.40927686    -0.78900
C128        C  0.47384299  0.11382026  0.41776925     1.01700
Cr129      Cr  0.51905919  0.12559062  0.38863635     1.93700
Cr130      Cr  0.54300666  0.16695257  0.42397917     1.93200
Cr131      Cr  0.48688449  0.16730946  0.41107501     1.39100
O132        O  0.51616578  0.15280440  0.40898896    -1.24000
O133        O  0.66436526  0.98786662  0.49567048    -0.86200
O134        O  0.69279479  0.00008933  0.04352069    -0.83300
C135        C  0.70198019  0.01953676  0.03196157     0.97300
O136        O  0.68857015  0.03843860  0.02849392    -0.83300
O137        O  0.64578206  0.06799370  0.02013727    -0.85900
C138        C  0.63635215  0.06359500  0.99436357     1.01800
O139        O  0.63385668  0.04186615  0.48692553    -0.78700
O140        O  0.62472401  0.99357721  0.48733605    -0.78900
C141        C  0.64657425  0.98968148  0.47742845     1.01700
O142        O  0.62569592  0.96854368  0.03572698    -0.86200
O143        O  0.65201952  0.98718829  0.08218322    -0.83300
C144        C  0.66040442  0.00345184  0.09951292     0.97300
O145        O  0.67030467  0.02322436  0.08884741    -0.83300
O146        O  0.62878798  0.04997254  0.07753167    -0.85900
C147        C  0.60983485  0.05840175  0.06463794     1.01700
O148        O  0.60327916  0.04945946  0.03946916    -0.78700
O149        O  0.59843368  0.99800376  0.04336237    -0.78900
C150        C  0.60447290  0.97548603  0.04501942     1.01700
Cr151      Cr  0.65786859  0.98760736  0.03886484     1.93700
Cr152      Cr  0.65796167  0.04310265  0.05248609     1.93200
Cr153      Cr  0.61641858  0.02024203  0.01542033     1.39100
O154        O  0.64388994  0.01703617  0.03609880    -1.24000
O155        O  0.66174288  0.98532868  0.24464507    -0.86200
O156        O  0.69264414  0.99739324  0.29032015    -0.83300
C157        C  0.70150154  0.01707532  0.27891771     0.97300
O158        O  0.68842984  0.03632043  0.27698213    -0.83300
O159        O  0.64587413  0.06617490  0.27079907    -0.85900
C160        C  0.63599151  0.06203453  0.24521580     1.01800
O161        O  0.63214705  0.04022948  0.23765863    -0.78700
O162        O  0.62219069  0.99189634  0.23786971    -0.78900
C163        C  0.64366123  0.98790959  0.22700826     1.01700
O164        O  0.62451053  0.96739867  0.28800306    -0.86200
O165        O  0.65364209  0.98531253  0.33240101    -0.83300
C166        C  0.66267369  0.00159275  0.34926576     0.97300
O167        O  0.67228277  0.02120351  0.33788674    -0.83300
O168        O  0.63062642  0.04853208  0.32918670    -0.85900
C169        C  0.61087950  0.05648739  0.31764032     1.01700
O170        O  0.60387173  0.04830679  0.29227575    -0.78700
O171        O  0.59823108  0.99758653  0.29630522    -0.78900
C172        C  0.60373633  0.97499525  0.29803761     1.01700
Cr173      Cr  0.65728588  0.98562665  0.28866985     1.93700
Cr174      Cr  0.65876101  0.04121683  0.30245673     1.93200
Cr175      Cr  0.61564510  0.01918029  0.26738651     1.39100
O176        O  0.64377307  0.01537078  0.28668576    -1.24000
O177        O  0.12352911  0.02357340  0.47799670    -0.86200
O178        O  0.13410484  0.97536771  0.47767810    -0.83300
C179        C  0.13805651  0.95343302  0.48511694     0.97300
O180        O  0.14373524  0.95443600  0.00739195    -0.83300
O181        O  0.18659091  0.98406965  0.01498900    -0.85900
C182        C  0.19989334  0.00304752  0.01843238     1.01800
O183        O  0.19072323  0.02187467  0.03102013    -0.78700
O184        O  0.16310442  0.02974229  0.48512630    -0.78900
C185        C  0.14500896  0.02798804  0.46731511     1.01700
O186        O  0.09618239  0.02367158  0.03260145    -0.86200
O187        O  0.10060828  0.97230948  0.02839150    -0.83300
C188        C  0.10756874  0.96261702  0.05325932     0.97300
O189        O  0.12743394  0.96988190  0.06516795    -0.83300
O190        O  0.16894132  0.99694930  0.07599873    -0.85900
C191        C  0.15841728  0.01582875  0.08750644     1.01700
O192        O  0.15019246  0.03302450  0.07104704    -0.78700
O193        O  0.12349001  0.05333408  0.02564800    -0.78900
C194        C  0.10228877  0.04609168  0.03480561     1.01700
Cr195      Cr  0.11372150  0.00205436  0.00420392     1.93700
Cr196      Cr  0.15622186  0.97825367  0.03961427     1.93200
Cr197      Cr  0.15558440  0.03422072  0.02758430     1.39100
O198        O  0.14159737  0.00476125  0.02432016    -1.24000
O199        O  0.12145291  0.02322758  0.22584755    -0.86200
O200        O  0.13311136  0.97563455  0.22728999    -0.83300
C201        C  0.13678599  0.95391038  0.23556344     0.97300
O202        O  0.14696319  0.95006503  0.26117944    -0.83300
O203        O  0.18866920  0.98263295  0.26906713    -0.85900
C204        C  0.20088950  0.00223624  0.27330218     1.01800
O205        O  0.19000557  0.02130293  0.28301498    -0.78700
O206        O  0.16050492  0.03121493  0.23400006    -0.78900
C207        C  0.14314230  0.02758527  0.21560933     1.01700
O208        O  0.09562232  0.01693398  0.28342249    -0.86200
O209        O  0.10317219  0.96630072  0.28129315    -0.83300
C210        C  0.11021593  0.95825612  0.30696868     0.97300
O211        O  0.12976430  0.96650776  0.31849879    -0.83300
O212        O  0.16922886  0.99630163  0.32868006    -0.85900
C213        C  0.15858777  0.01563726  0.33904847     1.01700
O214        O  0.14875187  0.03123297  0.32147361    -0.78700
O215        O  0.12103036  0.04770710  0.27445908    -0.78900
C216        C  0.10076859  0.03957046  0.28547435     1.01700
Cr217      Cr  0.11474737  0.99585078  0.25579973     1.93700
Cr218      Cr  0.15809921  0.97565819  0.29286187     1.93200
Cr219      Cr  0.15429220  0.03105533  0.27795836     1.39100
O220        O  0.14218486  0.00076322  0.27614239    -1.24000
O221        O  0.98270316  0.84562267  0.11860933    -0.86200
O222        O  0.00032614  0.81723582  0.16504543    -0.83300
C223        C  0.01979656  0.80950989  0.15195548     0.97300
O224        O  0.03748171  0.82431789  0.14664110    -0.83300
O225        O  0.06379411  0.87007873  0.13738697    -0.85900
C226        C  0.05692633  0.87977508  0.11236254     1.01800
O227        O  0.03435522  0.87940276  0.10663800    -0.78700
O228        O  0.98556465  0.88512755  0.10996740    -0.78900
C229        C  0.98353702  0.86326827  0.09996530     1.01700
O230        O  0.96355435  0.88196375  0.16170295    -0.86200
O231        O  0.98699112  0.85585488  0.20596692    -0.83300
C232        C  0.00486669  0.84804277  0.22169366     0.97300
O233        O  0.02456027  0.83964401  0.20899251    -0.83300
O234        O  0.04680399  0.88302158  0.19661801    -0.85900
C235        C  0.05361897  0.90294327  0.18470584     1.01700
O236        O  0.04371024  0.90982813  0.15984742    -0.78700
O237        O  0.99169642  0.91113091  0.16625978    -0.78900
C238        C  0.96958748  0.90369910  0.16961268     1.01700
Cr239      Cr  0.98498014  0.85115423  0.16245140     1.93700
Cr240      Cr  0.04134997  0.85453744  0.17117322     1.93200
Cr241      Cr  0.01376601  0.89499853  0.13704758     1.39100
O242        O  0.01332575  0.86713749  0.15753027    -1.24000
O243        O  0.98643254  0.84441211  0.36832155    -0.86200
O244        O  0.00104126  0.81578092  0.41639946    -0.83300
C245        C  0.02058105  0.80825761  0.40337409     0.97300
O246        O  0.03919820  0.82236838  0.40124882    -0.83300
O247        O  0.06658425  0.86721682  0.39352834    -0.85900
C248        C  0.06019551  0.87629359  0.36804895     1.01800
O249        O  0.03788915  0.87489185  0.36141754    -0.78700
O250        O  0.98937823  0.88387306  0.36113799    -0.78900
C251        C  0.98789342  0.86246051  0.35015699     1.01700
O252        O  0.96554717  0.88115613  0.41125403    -0.86200
O253        O  0.98603933  0.85431542  0.45667288    -0.83300
C254        C  0.00335320  0.84710450  0.47370139     0.97300
O255        O  0.02351943  0.83829481  0.46260667    -0.83300
O256        O  0.04742442  0.88117373  0.45131293    -0.85900
C257        C  0.05517103  0.90044865  0.43863224     1.01700
O258        O  0.04584651  0.90698834  0.41340090    -0.78700
O259        O  0.99406961  0.90990223  0.41691017    -0.78900
C260        C  0.97177952  0.90275954  0.41966284     1.01700
Cr261      Cr  0.98628797  0.84978782  0.41289467     1.93700
Cr262      Cr  0.04236790  0.85245511  0.42601070     1.93200
Cr263      Cr  0.01676223  0.89268345  0.38945528     1.39100
O264        O  0.01498423  0.86536859  0.41055506    -1.24000
O265        O  0.01766271  0.13316440  0.15125632    -0.86200
O266        O  0.96882593  0.14145925  0.15179415    -0.83300
C267        C  0.94648517  0.14091790  0.14480504     0.97300
O268        O  0.94053032  0.15094045  0.11968019    -0.83300
O269        O  0.96914459  0.19582533  0.11098255    -0.85900
C270        C  0.98781415  0.20966423  0.10653551     1.01800
O271        O  0.00717337  0.20084242  0.09447913    -0.78700
O272        O  0.02177492  0.17262171  0.14288654    -0.78900
C273        C  0.02067914  0.15484357  0.16136245     1.01700
O274        O  0.01219376  0.10724528  0.09508664    -0.86200
O275        O  0.96039461  0.11005810  0.09923664    -0.83300
C276        C  0.95119678  0.11676802  0.07394677     0.97300
O277        O  0.95865619  0.13644233  0.06191227    -0.83300
O278        O  0.98352906  0.17849749  0.05016740    -0.85900
C279        C  0.00319733  0.16886609  0.03888123     1.01700
O280        O  0.02042057  0.16124238  0.05572737    -0.78700
O281        O  0.04116226  0.13521916  0.10140233    -0.78900
C282        C  0.03457540  0.11401188  0.09232014     1.01700
Cr283      Cr  0.98988288  0.12427644  0.12313787     1.93700
Cr284      Cr  0.96474585  0.16517585  0.08703815     1.93200
Cr285      Cr  0.02094618  0.16663125  0.09896633     1.39100
O286        O  0.99187221  0.15176935  0.10234354    -1.24000
O287        O  0.01759346  0.12809281  0.40147307    -0.86200
O288        O  0.96988085  0.14039958  0.40011538    -0.83300
C289        C  0.94758206  0.13987240  0.39334218     0.97300
O290        O  0.94170683  0.14962784  0.36816062    -0.83300
O291        O  0.97199818  0.19278513  0.36226700    -0.85900
C292        C  0.99121749  0.20604327  0.35972810     1.01800
O293        O  0.01031003  0.19749940  0.34677100    -0.78700
O294        O  0.02354119  0.16734413  0.39380204    -0.78900
C295        C  0.02138910  0.14943341  0.41200695     1.01700
O296        O  0.01179107  0.10290402  0.34494758    -0.86200
O297        O  0.96037857  0.10891936  0.34735707    -0.83300
C298        C  0.95141745  0.11611943  0.32211344     0.97300
O299        O  0.95931863  0.13577620  0.31027209    -0.83300
O300        O  0.98631101  0.17759245  0.30062058    -0.85900
C301        C  0.00598454  0.16811564  0.28923092     1.01700
O302        O  0.02271524  0.15915022  0.30578863    -0.78700
O303        O  0.04168721  0.13033444  0.35036272    -0.78900
C304        C  0.03421704  0.10931633  0.34143798     1.01700
Cr305      Cr  0.98998022  0.12134863  0.37227035     1.93700
Cr306      Cr  0.96674248  0.16357605  0.33653124     1.93200
Cr307      Cr  0.02293352  0.16270752  0.34943039     1.39100
O308        O  0.99340653  0.14869298  0.35147736    -1.24000
O309        O  0.84286794  0.98584687  0.27417756    -0.86200
O310        O  0.81274592  0.99746636  0.22666700    -0.83300
C311        C  0.80331669  0.01695104  0.23723426     0.97300
O312        O  0.81663110  0.03598080  0.24016421    -0.83300
O313        O  0.85944892  0.06629728  0.24607213    -0.85900
C314        C  0.86983611  0.06219459  0.27145164     1.01800
O315        O  0.87324044  0.04036338  0.27976107    -0.78700
O316        O  0.88249214  0.99189458  0.28100151    -0.78900
C317        C  0.86092808  0.98822511  0.29186459     1.01700
O318        O  0.88042805  0.96716541  0.23218400    -0.86200
O319        O  0.85221383  0.98509848  0.18680826    -0.83300
C320        C  0.84313770  0.00120635  0.16940911     0.97300
O321        O  0.83364356  0.02109783  0.17976003    -0.83300
O322        O  0.87509246  0.04922714  0.18845616    -0.85900
C323        C  0.89499056  0.05681385  0.19996809     1.01700
O324        O  0.90197063  0.04798797  0.22524276    -0.78700
O325        O  0.90698885  0.99686638  0.22268598    -0.78900
C326        C  0.90092840  0.97442380  0.22082329     1.01700
Cr327      Cr  0.84793079  0.98570213  0.23020954     1.93700
Cr328      Cr  0.84670025  0.04127241  0.21497408     1.93200
Cr329      Cr  0.88968701  0.01896536  0.25082508     1.39100
O330        O  0.86163880  0.01539373  0.23139368    -1.24000
O331        O  0.84062651  0.98688812  0.02381783    -0.86200
O332        O  0.81414665  0.99909992  0.47729795    -0.83300
C333        C  0.80581796  0.01856910  0.48946919     0.97300
O334        O  0.81965182  0.03724799  0.49150456    -0.83300
O335        O  0.86295909  0.06654902  0.49576451    -0.85900
C336        C  0.86921915  0.06320293  0.02176464     1.01800
O337        O  0.87111391  0.04126097  0.03029171    -0.78700
O338        O  0.88014204  0.99256580  0.03185512    -0.78900
C339        C  0.85842380  0.98859703  0.04198862     1.01700
O340        O  0.88161621  0.96700323  0.48001689    -0.86200
O341        O  0.85311495  0.98628928  0.43579410    -0.83300
C342        C  0.84434362  0.00289021  0.41891913     0.97300
O343        O  0.83459648  0.02237068  0.43001181    -0.83300
O344        O  0.87687907  0.04875779  0.43775191    -0.85900
C345        C  0.89701174  0.05603947  0.44883902     1.01700
O346        O  0.90414028  0.04738874  0.47417366    -0.78700
O347        O  0.90876417  0.99646114  0.47182758    -0.78900
C348        C  0.90257051  0.97410541  0.46960704     1.01700
Cr349      Cr  0.84925368  0.98619927  0.47921091     1.93700
Cr350      Cr  0.84893528  0.04188623  0.46502962     1.93200
Cr351      Cr  0.89168250  0.01855408  0.50003730     1.39100
O352        O  0.86354622  0.01554501  0.48077504    -1.24000
O353        O  0.49089165  0.38800886  0.15141164    -0.86200
O354        O  0.54037877  0.38170200  0.15364704    -0.83300
C355        C  0.56288512  0.38141357  0.14664204     0.97300
O356        O  0.56893705  0.37168043  0.12157208    -0.83300
O357        O  0.54236493  0.32670771  0.11278662    -0.85900
C358        C  0.52405531  0.31254629  0.10884730     1.01800
O359        O  0.50446960  0.32074544  0.09657899    -0.78700
O360        O  0.48825190  0.34848751  0.14417355    -0.78900
C361        C  0.48883013  0.36630750  0.16218946     1.01700
O362        O  0.49687208  0.41391928  0.09474918    -0.86200
O363        O  0.54840435  0.41245457  0.10088653    -0.83300
C364        C  0.55847212  0.40617869  0.07616965     0.97300
O365        O  0.55136313  0.38680253  0.06354698    -0.83300
O366        O  0.52822841  0.34377959  0.05183599    -0.85900
C367        C  0.50826336  0.35247815  0.04031036     1.01700
O368        O  0.49061526  0.35976118  0.05666374    -0.78700
O369        O  0.46844394  0.38541714  0.10120883    -0.78900
C370        C  0.47469590  0.40673061  0.09154266     1.01700
Cr371      Cr  0.51899610  0.39763496  0.12390198     1.93700
Cr372      Cr  0.54589254  0.35752830  0.08868157     1.93200
Cr373      Cr  0.48958501  0.35448925  0.10006210     1.39100
O374        O  0.51822056  0.37003711  0.10368425    -1.24000
O375        O  0.49140364  0.38838846  0.40305546    -0.86200
O376        O  0.53977373  0.37864758  0.40310756    -0.83300
C377        C  0.56212452  0.37686176  0.39605834     0.97300
O378        O  0.56742944  0.36789104  0.37038700    -0.83300
O379        O  0.53756672  0.32534711  0.36103152    -0.85900
C380        C  0.51842106  0.31220300  0.35741159     1.01800
O381        O  0.49946361  0.32161157  0.34505435    -0.78700
O382        O  0.48619883  0.34921515  0.39400666    -0.78900
C383        C  0.48810564  0.36646141  0.41269796     1.01700
O384        O  0.49759015  0.41575055  0.34692173    -0.86200
O385        O  0.54936091  0.41072898  0.35110981    -0.83300
C386        C  0.55879828  0.40477137  0.32580141     0.97300
O387        O  0.55115054  0.38558152  0.31300595    -0.83300
O388        O  0.52402529  0.34442160  0.30092299    -0.85900
C389        C  0.50446743  0.35443936  0.29000004     1.01700
O390        O  0.48758162  0.36272479  0.30685085    -0.78700
O391        O  0.46797952  0.38840395  0.35344486    -0.78900
C392        C  0.47503614  0.40957737  0.34417728     1.01700
Cr393      Cr  0.51936617  0.39707282  0.37464963     1.93700
Cr394      Cr  0.54317755  0.35620864  0.33756098     1.93200
Cr395      Cr  0.48699571  0.35633733  0.35014306     1.39100
O396        O  0.51653952  0.37020089  0.35334204    -1.24000
O397        O  0.67359124  0.53164460  0.26839451    -0.86200
O398        O  0.70208753  0.51794627  0.22042445    -0.83300
C399        C  0.71005493  0.49840900  0.23301352     0.97300
O400        O  0.69563826  0.48011922  0.23590554    -0.83300
O401        O  0.65056502  0.45273698  0.24333057    -0.85900
C402        C  0.64063601  0.45777368  0.26873982     1.01800
O403        O  0.63956242  0.47990456  0.27624942    -0.78700
O404        O  0.63363487  0.52885429  0.27631251    -0.78900
C405        C  0.65555159  0.53050309  0.28648017     1.01700
O406        O  0.63683788  0.55350803  0.22717558    -0.86200
O407        O  0.66314208  0.53332288  0.18107788    -0.83300
C408        C  0.67081429  0.51655260  0.16384019     0.97300
O409        O  0.67902356  0.49609590  0.17477080    -0.83300
O410        O  0.63584119  0.47123501  0.18555328    -0.85900
C411        C  0.61583335  0.46453622  0.19795285     1.01700
O412        O  0.60951934  0.47405983  0.22293707    -0.78700
O413        O  0.60805327  0.52558334  0.21929642    -0.78900
C414        C  0.61516436  0.54781475  0.21822805     1.01700
Cr415      Cr  0.66792096  0.53242484  0.22454029     1.93700
Cr416      Cr  0.66499998  0.47691110  0.21113362     1.93200
Cr417      Cr  0.62413901  0.50227649  0.24726356     1.39100
O418        O  0.65206407  0.50384937  0.22691547    -1.24000
O419        O  0.67147297  0.53036946  0.01698345    -0.86200
O420        O  0.69814795  0.51383090  0.47055865    -0.83300
C421        C  0.70592678  0.49412534  0.48283918     0.97300
O422        O  0.69197153  0.47552134  0.48522459    -0.83300
O423        O  0.64776441  0.44846515  0.49369471    -0.85900
C424        C  0.64180167  0.45572296  0.02252119     1.01800
O425        O  0.64058264  0.47808886  0.02889834    -0.78700
O426        O  0.63193824  0.52668627  0.02698985    -0.78900
C427        C  0.65406670  0.52982916  0.03601158     1.01700
O428        O  0.63248311  0.54837646  0.47580556    -0.86200
O429        O  0.65933899  0.52814232  0.43066368    -0.83300
C430        C  0.66728588  0.51139911  0.41361968     0.97300
O431        O  0.67540657  0.49102525  0.42463446    -0.83300
O432        O  0.63211343  0.46679268  0.43603219    -0.85900
C433        C  0.61283452  0.45907361  0.44913605     1.01700
O434        O  0.60659099  0.46851657  0.47421499    -0.78700
O435        O  0.60371910  0.52014737  0.46924131    -0.78900
C436        C  0.61120145  0.54216513  0.46599631     1.01700
Cr437      Cr  0.66394034  0.52798498  0.47394523     1.93700
Cr438      Cr  0.66146349  0.47230696  0.46103838     1.93200
Cr439      Cr  0.62088663  0.49761917  0.49761587     1.39100
O440        O  0.64849191  0.49934224  0.47673451    -1.24000
O441        O  0.38755576  0.49609464  0.48064364    -0.86200
O442        O  0.37716791  0.54402483  0.48044859    -0.83300
C443        C  0.37439156  0.56590801  0.48803749     0.97300
O444        O  0.36443290  0.56987885  0.01657529    -0.83300
O445        O  0.32125412  0.53993719  0.02281772    -0.85900
C446        C  0.30763392  0.52110528  0.02563700     1.01800
O447        O  0.31669712  0.50154487  0.03713504    -0.78700
O448        O  0.34813782  0.48877185  0.48881028    -0.78900
C449        C  0.36594503  0.49167062  0.47063144     1.01700
O450        O  0.41127754  0.49919717  0.03604379    -0.86200
O451        O  0.40669498  0.55026891  0.03549037    -0.83300
C452        C  0.39982469  0.55846315  0.06106914     0.97300
O453        O  0.38019727  0.55060398  0.07317542    -0.83300
O454        O  0.33874874  0.52328488  0.08291832    -0.85900
C455        C  0.34873936  0.50345440  0.09329915     1.01700
O456        O  0.35706109  0.48746977  0.07553864    -0.78700
O457        O  0.38408198  0.46981724  0.02851895    -0.78900
C458        C  0.40562101  0.47662096  0.03700634     1.01700
Cr459      Cr  0.39319712  0.52214760  0.00967901     1.93700
Cr460      Cr  0.35150468  0.54412293  0.04753982     1.93200
Cr461      Cr  0.35169474  0.48894976  0.03223610     1.39100
O462        O  0.36584680  0.51836745  0.03062700    -1.24000
O463        O  0.38564025  0.49766149  0.23117685    -0.86200
O464        O  0.37574532  0.54557503  0.23179139    -0.83300
C465        C  0.37292278  0.56742675  0.23947175     0.97300
O466        O  0.36241810  0.57167858  0.26476641    -0.83300
O467        O  0.32028967  0.54031062  0.27254370    -0.85900
C468        C  0.30768070  0.52076255  0.27539354     1.01800
O469        O  0.31708399  0.50202378  0.28815971    -0.78700
O470        O  0.34627400  0.49091855  0.24017391    -0.78900
C471        C  0.36372740  0.49389212  0.22164335     1.01700
O472        O  0.41141586  0.50306427  0.28865092    -0.86200
O473        O  0.40545427  0.55392254  0.28559793    -0.83300
C474        C  0.39799223  0.56287054  0.31056103     0.97300
O475        O  0.37824166  0.55518940  0.32252917    -0.83300
O476        O  0.33799466  0.52620909  0.33313655    -0.85900
C477        C  0.34847609  0.50681828  0.34394540     1.01700
O478        O  0.35761134  0.49073784  0.32684986    -0.78700
O479        O  0.38535523  0.47286024  0.28100598    -0.78900
C480        C  0.40619232  0.48044767  0.29081665     1.01700
Cr481      Cr  0.39317756  0.52475808  0.26067409     1.93700
Cr482      Cr  0.35016406  0.54649917  0.29693566     1.93200
Cr483      Cr  0.35243325  0.49087794  0.28377161     1.39100
O484        O  0.36555733  0.52078758  0.28118280    -1.24000
O485        O  0.52822593  0.67407114  0.11985948    -0.86200
O486        O  0.50923027  0.70368389  0.16421662    -0.83300
C487        C  0.48925099  0.70992392  0.15105443     0.97300
O488        O  0.47220940  0.69435817  0.14705726    -0.83300
O489        O  0.44739946  0.64800329  0.14225855    -0.85900
C490        C  0.45489595  0.63773588  0.11808175     1.01800
O491        O  0.47725194  0.63962745  0.11170705    -0.78700
O492        O  0.52649530  0.63419416  0.11418951    -0.78900
C493        C  0.52919798  0.65566613  0.10276548     1.01700
O494        O  0.54832281  0.64002706  0.16564192    -0.86200
O495        O  0.52415481  0.66702555  0.20758399    -0.83300
C496        C  0.50576039  0.67389097  0.22295268     0.97300
O497        O  0.48605942  0.68201127  0.21012831    -0.83300
O498        O  0.46499750  0.63784606  0.20217232    -0.85900
C499        C  0.45862293  0.61759425  0.19138538     1.01700
O500        O  0.46899732  0.61026394  0.16705091    -0.78700
O501        O  0.52089996  0.61017163  0.17203460    -0.78900
C502        C  0.54294058  0.61798235  0.17371274     1.01700
Cr503      Cr  0.52590513  0.67025869  0.16407070     1.93700
Cr504      Cr  0.46952420  0.66534991  0.17419409     1.93200
Cr505      Cr  0.49837545  0.62497772  0.14248531     1.39100
O506        O  0.49805880  0.65326876  0.16102688    -1.24000
O507        O  0.52750260  0.67618853  0.36892200    -0.86200
O508        O  0.51329632  0.70107372  0.41953216    -0.83300
C509        C  0.49368742  0.70963517  0.40786924     0.97300
O510        O  0.47536399  0.69542159  0.40372203    -0.83300
O511        O  0.44807183  0.65002365  0.39407828    -0.85900
C512        C  0.45412727  0.64121897  0.36843537     1.01800
O513        O  0.47611667  0.64336146  0.36067336    -0.78700
O514        O  0.52501851  0.63709391  0.35941214    -0.78900
C515        C  0.52552956  0.65928569  0.34984988     1.01700
O516        O  0.54974938  0.63705294  0.40829940    -0.86200
O517        O  0.52920235  0.66061211  0.45546396    -0.83300
C518        C  0.51235288  0.66747213  0.47319622     0.97300
O519        O  0.49171373  0.67617811  0.46330522    -0.83300
O520        O  0.46803540  0.63382659  0.45070299    -0.85900
C521        C  0.46039903  0.61478624  0.43792849     1.01700
O522        O  0.46945363  0.60920643  0.41217103    -0.78700
O523        O  0.52177830  0.60760761  0.41382484    -0.78900
C524        C  0.54394594  0.61507033  0.41621730     1.01700
Cr525      Cr  0.52836060  0.66776889  0.41261559     1.93700
Cr526      Cr  0.47251121  0.66374785  0.42659128     1.93200
Cr527      Cr  0.49820484  0.62546872  0.38779358     1.39100
O528        O  0.49977798  0.65191860  0.40991034    -1.24000
O529        O  0.02099149  0.38463123  0.10680402    -0.86200
O530        O  0.97227743  0.37516189  0.11091960    -0.83300
C531        C  0.95042818  0.37701974  0.11974741     0.97300
O532        O  0.94537375  0.36803231  0.14563798    -0.83300
O533        O  0.97326760  0.32355074  0.15095025    -0.85900
C534        C  0.99189098  0.30943975  0.15230373     1.01800
O535        O  0.01219501  0.31697303  0.16352980    -0.78700
O536        O  0.02619652  0.34543426  0.11634859    -0.78900
C537        C  0.02420549  0.36281630  0.09756576     1.01700
O538        O  0.01827335  0.41157182  0.16192970    -0.86200
O539        O  0.96685291  0.40820684  0.16306933    -0.83300
C540        C  0.95921435  0.40222447  0.18942780     0.97300
O541        O  0.96662791  0.38243003  0.20140347    -0.83300
O542        O  0.99082011  0.33886644  0.21052762    -0.85900
C543        C  0.01090638  0.34790742  0.22106021     1.01700
O544        O  0.02748586  0.35621569  0.20356302    -0.78700
O545        O  0.04689613  0.38289934  0.15680456    -0.78900
C546        C  0.04067469  0.40479195  0.16397140     1.01700
Cr547      Cr  0.99468392  0.39354578  0.13685430     1.93700
Cr548      Cr  0.97085539  0.35351285  0.17580631     1.93200
Cr549      Cr  0.02655945  0.35134093  0.16002003     1.39100
O550        O  0.99758909  0.36653403  0.15844955    -1.24000
O551        O  0.01977962  0.38376514  0.35948669    -0.86200
O552        O  0.97167901  0.37332942  0.36105663    -0.83300
C553        C  0.94949610  0.37520331  0.36807758     0.97300
O554        O  0.94295360  0.36563329  0.39320470    -0.83300
O555        O  0.97117436  0.32109911  0.39985805    -0.85900
C556        C  0.98967144  0.30701361  0.40294276     1.01800
O557        O  0.00925177  0.31515654  0.41513684    -0.78700
O558        O  0.02367643  0.34421778  0.36730959    -0.78900
C559        C  0.02289658  0.36224468  0.34914451     1.01700
O560        O  0.01508885  0.40946840  0.41591891    -0.86200
O561        O  0.96304539  0.40599241  0.41350353    -0.83300
C562        C  0.95413235  0.39930158  0.43905741     0.97300
O563        O  0.96128684  0.37935254  0.45074675    -0.83300
O564        O  0.98628521  0.33684803  0.46108098    -0.85900
C565        C  0.00636571  0.34580760  0.47198856     1.01700
O566        O  0.02340760  0.35366036  0.45481662    -0.78700
O567        O  0.04366778  0.38087044  0.40937745    -0.78900
C568        C  0.03746621  0.40242425  0.41790281     1.01700
Cr569      Cr  0.99237207  0.39192528  0.38867085     1.93700
Cr570      Cr  0.96727453  0.35097723  0.42495938     1.93200
Cr571      Cr  0.02336641  0.34936554  0.41144337     1.39100
O572        O  0.99451099  0.36456008  0.40954232    -1.24000
O573        O  0.84372968  0.52889506  0.49380657    -0.86200
O574        O  0.81504573  0.51655529  0.04353543    -0.83300
C575        C  0.80652800  0.49735877  0.03145694     0.97300
O576        O  0.82022314  0.47852902  0.02928051    -0.83300
O577        O  0.86409052  0.44967678  0.02410986    -0.85900
C578        C  0.87411784  0.45303607  0.49533835     1.01800
O579        O  0.87697342  0.47498600  0.48696121    -0.78700
O580        O  0.88348916  0.52424971  0.48647466    -0.78900
C581        C  0.86180878  0.52737192  0.47582903     1.01700
O582        O  0.88078880  0.55037451  0.03470792    -0.86200
O583        O  0.85445127  0.53138132  0.08135891    -0.83300
C584        C  0.84643345  0.51504811  0.09930636     0.97300
O585        O  0.83670992  0.49510483  0.08947436    -0.83300
O586        O  0.87883782  0.46894590  0.08084214    -0.85900
C587        C  0.89894261  0.46197042  0.06925569     1.01700
O588        O  0.90568999  0.47051435  0.04364955    -0.78700
O589        O  0.90874994  0.52184089  0.04397061    -0.78900
C590        C  0.90218069  0.54421113  0.04421612     1.01700
Cr591      Cr  0.84931012  0.53012626  0.03823374     1.93700
Cr592      Cr  0.85030313  0.47485801  0.05453112     1.93200
Cr593      Cr  0.89207448  0.49827507  0.01721153     1.39100
O594        O  0.86416970  0.50103014  0.03723236    -1.24000
O595        O  0.85019519  0.53214106  0.24354984    -0.86200
O596        O  0.82065274  0.51872564  0.29056639    -0.83300
C597        C  0.81184813  0.49976802  0.27782066     0.97300
O598        O  0.82521938  0.48070227  0.27538793    -0.83300
O599        O  0.86862899  0.45074544  0.27099139    -0.85900
C600        C  0.87865818  0.45472926  0.24532787     1.01800
O601        O  0.88105995  0.47652647  0.23638026    -0.78700
O602        O  0.88951195  0.52523163  0.23411120    -0.78900
C603        C  0.86759333  0.52948729  0.22485895     1.01700
O604        O  0.88804608  0.55062917  0.28435681    -0.86200
O605        O  0.86072836  0.53132823  0.33060923    -0.83300
C606        C  0.85123321  0.51498443  0.34742604     0.97300
O607        O  0.84083767  0.49594594  0.33621138    -0.83300
O608        O  0.88290581  0.46968856  0.32787960    -0.85900
C609        C  0.90287758  0.46211131  0.31657906     1.01700
O610        O  0.91024891  0.47034266  0.29103598    -0.78700
O611        O  0.91536138  0.52108193  0.29127117    -0.78900
C612        C  0.90951964  0.54355573  0.29262754     1.01700
Cr613      Cr  0.85578440  0.53150853  0.28711202     1.93700
Cr614      Cr  0.85484924  0.47605797  0.30123161     1.93200
Cr615      Cr  0.89753705  0.49858324  0.26454391     1.39100
O616        O  0.86967615  0.50205041  0.28475519    -1.24000
O617        O  0.13092935  0.49142646  0.27319387    -0.86200
O618        O  0.14146390  0.53927674  0.27100784    -0.83300
C619        C  0.14124680  0.56141832  0.26354591     0.97300
O620        O  0.14975287  0.56695109  0.23744450    -0.83300
O621        O  0.19347775  0.53853244  0.23007915    -0.85900
C622        C  0.20749122  0.52001220  0.22813300     1.01800
O623        O  0.19920920  0.50014472  0.21702139    -0.78700
O624        O  0.17033663  0.48674557  0.26518974    -0.78900
C625        C  0.15272644  0.48908711  0.28366658     1.01700
O626        O  0.10450313  0.49670860  0.21681142    -0.86200
O627        O  0.10893215  0.54776186  0.21890757    -0.83300
C628        C  0.11512306  0.55612647  0.19294267     0.97300
O629        O  0.13412379  0.54765387  0.18038048    -0.83300
O630        O  0.17675302  0.52267865  0.16985927    -0.85900
C631        C  0.16784909  0.50243706  0.15973817     1.01700
O632        O  0.15996678  0.48595760  0.17760366    -0.78700
O633        O  0.13220375  0.46720680  0.22303824    -0.78900
C634        C  0.11073756  0.47435515  0.21440330     1.01700
Cr635      Cr  0.12268776  0.51863647  0.24373979     1.93700
Cr636      Cr  0.16323999  0.54218433  0.20565352     1.93200
Cr637      Cr  0.16454182  0.48660473  0.22098156     1.39100
O638        O  0.14981752  0.51564770  0.22246487    -1.24000
O639        O  0.12810518  0.48860896  0.02370644    -0.86200
O640        O  0.13710803  0.53671634  0.02544970    -0.83300
C641        C  0.13671093  0.55904834  0.01943091     0.97300
O642        O  0.14768629  0.56437104  0.49336451    -0.83300
O643        O  0.19233797  0.53468478  0.48696136    -0.85900
C644        C  0.20624012  0.51621563  0.48243283     1.01800
O645        O  0.19757181  0.49776785  0.46868284    -0.78700
O646        O  0.16762148  0.48349896  0.01470016    -0.78900
C647        C  0.15005729  0.48517088  0.03329386     1.01700
O648        O  0.10274914  0.49354109  0.46766817    -0.86200
O649        O  0.10718838  0.54544431  0.47063746    -0.83300
C650        C  0.11523186  0.55519242  0.44602366     0.97300
O651        O  0.13495018  0.54727699  0.43473114    -0.83300
O652        O  0.17686390  0.52222680  0.42463369    -0.85900
C653        C  0.16659014  0.50351088  0.41225204     1.01700
O654        O  0.15799466  0.48604356  0.42819518    -0.78700
O655        O  0.13097706  0.46442171  0.47327397    -0.78900
C656        C  0.10921705  0.47117742  0.46563346     1.01700
Cr657      Cr  0.12035763  0.51549927  0.49548940     1.93700
Cr658      Cr  0.16269582  0.54036526  0.46124752     1.93200
Cr659      Cr  0.16285612  0.48431415  0.47179415     1.39100
O660        O  0.14821070  0.51331081  0.47529535    -1.24000
O661        O  0.98766016  0.67182610  0.14507707    -0.86200
O662        O  0.00155714  0.70115540  0.09779772    -0.83300
C663        C  0.02167397  0.70885748  0.10904830     0.97300
O664        O  0.04031485  0.69478566  0.11093525    -0.83300
O665        O  0.06744539  0.64995476  0.11746747    -0.85900
C666        C  0.06268571  0.63965471  0.14285092     1.01800
O667        O  0.04058432  0.63785141  0.15117890    -0.78700
O668        O  0.99131216  0.63212885  0.15268085    -0.78900
C669        C  0.98917256  0.65380423  0.16312790     1.01700
O670        O  0.96614994  0.63584467  0.10315400    -0.86200
O671        O  0.98663414  0.66289716  0.05754276    -0.83300
C672        C  0.00362805  0.67051762  0.04014876     0.97300
O673        O  0.02392700  0.67907471  0.05074632    -0.83300
O674        O  0.04859803  0.63592535  0.06013569    -0.85900
C675        C  0.05563800  0.61598850  0.07198738     1.01700
O676        O  0.04615368  0.60902372  0.09704703    -0.78700
O677        O  0.99435254  0.60757180  0.09461241    -0.78900
C678        C  0.97200920  0.61460507  0.09336307     1.01700
Cr679      Cr  0.98724393  0.66695151  0.10108147     1.93700
Cr680      Cr  0.04316285  0.66454940  0.08619283     1.93200
Cr681      Cr  0.01785760  0.62318438  0.12245960     1.39100
O682        O  0.01615217  0.65141660  0.10274891    -1.24000
O683        O  0.99328966  0.67025667  0.39506277    -0.86200
O684        O  0.00604928  0.69908373  0.34631996    -0.83300
C685        C  0.02551461  0.70791915  0.35800539     0.97300
O686        O  0.04436760  0.69430231  0.36098869    -0.83300
O687        O  0.07331744  0.65070194  0.36867727    -0.85900
C688        C  0.06861245  0.64099598  0.39447986     1.01800
O689        O  0.04649595  0.63888627  0.40250313    -0.78700
O690        O  0.99772363  0.63069796  0.40341848    -0.78900
C691        C  0.99463305  0.65237097  0.41336025     1.01700
O692        O  0.97321259  0.63295477  0.35453354    -0.86200
O693        O  0.99207713  0.65956428  0.30802910    -0.83300
C694        C  0.00839356  0.66787539  0.29020987     0.97300
O695        O  0.02873395  0.67692425  0.30037712    -0.83300
O696        O  0.05516185  0.63528099  0.31132882    -0.85900
C697        C  0.06229232  0.61544073  0.32338043     1.01700
O698        O  0.05369965  0.60903229  0.34906702    -0.78700
O699        O  0.00216694  0.60539604  0.34634950    -0.78900
C700        C  0.97966590  0.61191752  0.34479135     1.01700
Cr701      Cr  0.99289162  0.66460312  0.35127386     1.93700
Cr702      Cr  0.04859835  0.66395917  0.33667991     1.93200
Cr703      Cr  0.02483117  0.62243940  0.37393315     1.39100
O704        O  0.02215411  0.65008376  0.35331356    -1.24000
C705        C  0.98888905  0.64481722  0.49802538    -0.10000
C706        C  0.99954541  0.66760772  0.00743243     0.06200
C707        C  0.01165068  0.68261369  0.48667313    -0.03800
C708        C  0.00793655  0.67836525  0.45594510    -0.08200
C709        C  0.99530291  0.65713560  0.44598559     0.05300
C710        C  0.98603824  0.64008031  0.46740227    -0.03300
Br711      Br  0.96917260  0.61013288  0.45652380    -0.03000
H712        H  0.98007625  0.63292416  0.01468008     0.09200
H713        H  0.01586985  0.69126365  0.43967347     0.07200
Br714      Br  0.02518290  0.71449440  0.99575960    -0.03400
C715        C  0.98888789  0.64515755  0.24817131    -0.10000
C716        C  0.00305012  0.66569815  0.25750866     0.06200
C717        C  0.01060390  0.68325512  0.23569285    -0.03800
C718        C  0.00489331  0.67946189  0.20523878    -0.08200
C719        C  0.99149240  0.65845491  0.19587973     0.05300
C720        C  0.98303201  0.64148137  0.21785241    -0.03300
Br721      Br  0.96260668  0.61354043  0.20803381    -0.03000
H722        H  0.98244897  0.63159674  0.26460926     0.09200
H723        H  0.01170104  0.69267843  0.18865638     0.07200
Br724      Br  0.02761628  0.71314424  0.24618671    -0.03400
C725        C  0.10284908  0.61053080  0.39336995    -0.10000
C726        C  0.08655134  0.62478776  0.41075471     0.06200
C727        C  0.08147812  0.61685239  0.44071783    -0.03800
C728        C  0.09009905  0.59385114  0.45125474    -0.08200
C729        C  0.10456888  0.57844085  0.43286162     0.05300
C730        C  0.11184819  0.58770461  0.40393783    -0.03300
Br731      Br  0.13305910  0.57011313  0.37640329    -0.03000
H732        H  0.10698177  0.61608332  0.37034492     0.09200
H733        H  0.08558402  0.58813218  0.47411308     0.07200
Br734      Br  0.06211580  0.63643064  0.46806102    -0.03400
C735        C  0.11512329  0.59954567  0.02817532    -0.10000
C736        C  0.11817982  0.57454532  0.03601995     0.06200
C737        C  0.10047583  0.56368150  0.05636341    -0.03800
C738        C  0.08030448  0.57742579  0.06695136    -0.08200
C739        C  0.07682171  0.60210154  0.05838438     0.05300
C740        C  0.09505862  0.61342100  0.03942408    -0.03300
Br741      Br  0.09502603  0.64805422  0.02923167    -0.03000
H742        H  0.12825176  0.60834040  0.01287054     0.09200
H743        H  0.06708244  0.56858403  0.08211644     0.07200
Br744      Br  0.10111243  0.52996848  0.07097742    -0.03400
C745        C  0.08644850  0.59196480  0.19799157    -0.10000
C746        C  0.10281987  0.57844757  0.17971894     0.06200
C747        C  0.10941432  0.58859664  0.15104358    -0.03800
C748        C  0.09831079  0.61058559  0.14078339    -0.08200
C749        C  0.08074265  0.62316253  0.15840076     0.05300
C750        C  0.07576849  0.61410593  0.18788705    -0.03300
Br751      Br  0.05411517  0.63083081  0.21557050    -0.03000
H752        H  0.08202559  0.58547116  0.22057405     0.09200
H753        H  0.10227425  0.61695354  0.11802505     0.07200
Br754      Br  0.13288362  0.57365637  0.12385667    -0.03400
C755        C  0.13676314  0.49311763  0.33623293    -0.10000
C756        C  0.15740436  0.49172542  0.31676185     0.06200
C757        C  0.18145898  0.49577284  0.32919979    -0.03800
C758        C  0.18419107  0.50079958  0.36006693    -0.08200
C759        C  0.16348683  0.50166162  0.37921628     0.05300
C760        C  0.13960431  0.49788958  0.36694823    -0.03300
Br761      Br  0.10988526  0.49992283  0.39097780    -0.03000
H762        H  0.11811209  0.49072874  0.32754187     0.09200
H763        H  0.20263916  0.50337367  0.36930725     0.07200
Br764      Br  0.21168374  0.49499457  0.30614027    -0.03400
C765        C  0.17634991  0.50172778  0.07418037    -0.10000
C766        C  0.15588832  0.48704271  0.06567616     0.06200
C767        C  0.14037651  0.47698418  0.08814688    -0.03800
C768        C  0.14507353  0.48214764  0.11837086    -0.08200
C769        C  0.16501504  0.49752824  0.12704751     0.05300
C770        C  0.18089666  0.50722005  0.10450295    -0.03300
Br771      Br  0.20920577  0.52746363  0.11350310    -0.03000
H772        H  0.18840148  0.50975104  0.05701888     0.09200
H773        H  0.13258468  0.47438075  0.13523079     0.07200
Br774      Br  0.11283953  0.45576020  0.07890196    -0.03400
C775        C  0.10889462  0.56541948  0.30319642    -0.10000
C776        C  0.12417934  0.57746992  0.28143706     0.06200
C777        C  0.11911310  0.60240657  0.27447693    -0.03800
C778        C  0.09878572  0.61422336  0.28822635    -0.08200
C779        C  0.08293125  0.60162935  0.30881515     0.05300
C780        C  0.08839769  0.57692341  0.31633021    -0.03300
Br781      Br  0.06786064  0.55692112  0.34257706    -0.03000
H782        H  0.11195994  0.54619057  0.30921566     0.09200
H783        H  0.09541445  0.63349576  0.28271209     0.07200
Br784      Br  0.13914800  0.62131246  0.24676326    -0.03400
C785        C  0.91876144  0.58121598  0.32187609    -0.10000
C786        C  0.92759272  0.56155689  0.30443431     0.06200
C787        C  0.95348906  0.55876945  0.30024294    -0.03800
C788        C  0.96987152  0.57535675  0.31367189    -0.08200
C789        C  0.96113894  0.59487512  0.33158301     0.05300
C790        C  0.93514848  0.59769174  0.33563584    -0.03300
Br791      Br  0.92040249  0.62246787  0.36084665    -0.03000
H792        H  0.89893727  0.58331131  0.32568695     0.09200
H793        H  0.98965373  0.57301656  0.30978195     0.07200
Br794      Br  0.96783922  0.53348152  0.27543681    -0.03400
C795        C  0.96139580  0.57973278  0.05989775    -0.10000
C796        C  0.95313626  0.59765964  0.08042595     0.06200
C797        C  0.92753970  0.59835961  0.08806297    -0.03800
C798        C  0.91104888  0.58132464  0.07521375    -0.08200
C799        C  0.91962044  0.56313527  0.05529776     0.05300
C800        C  0.94505052  0.56253470  0.04756853    -0.03300
Br801      Br  0.95850264  0.53915791  0.01949610    -0.03000
H802        H  0.98082970  0.57900505  0.05331680     0.09200
H803        H  0.89158402  0.58167149  0.08172455     0.07200
Br804      Br  0.91412255  0.62053489  0.11752819    -0.03400
C805        C  0.87909553  0.52554881  0.42404405    -0.10000
C806        C  0.85792852  0.52714288  0.44263687     0.06200
C807        C  0.83405510  0.52513807  0.42911933    -0.03800
C808        C  0.83208103  0.52047957  0.39814910    -0.08200
C809        C  0.85337550  0.51828433  0.38014842     0.05300
C810        C  0.87701154  0.52123867  0.39324685    -0.03300
Br811      Br  0.90733476  0.51803577  0.37048944    -0.03000
H812        H  0.89757318  0.52690868  0.43357003     0.09200
H813        H  0.81384804  0.51891381  0.38799222     0.07200
Br814      Br  0.80321583  0.52827254  0.45087235    -0.03400
C815        C  0.83867006  0.51758057  0.18430811    -0.10000
C816        C  0.86149940  0.52842795  0.19257136     0.06200
C817        C  0.87842958  0.53567495  0.16994351    -0.03800
C818        C  0.87281925  0.53106283  0.13986915    -0.08200
C819        C  0.85043110  0.51938986  0.13163462     0.05300
C820        C  0.83302668  0.51303418  0.15411344    -0.03300
Br821      Br  0.80101531  0.49938658  0.14487606    -0.03000
H822        H  0.82534837  0.51198949  0.20149986     0.09200
H823        H  0.88626316  0.53648408  0.12273099     0.07200
Br824      Br  0.90880860  0.55295031  0.17845935    -0.03400
C825        C  0.04954727  0.43531906  0.45357623    -0.10000
C826        C  0.05641388  0.41947334  0.43004846     0.06200
C827        C  0.08113824  0.42021430  0.41904993    -0.03800
C828        C  0.09830633  0.43666049  0.43158612    -0.08200
C829        C  0.09120358  0.45279197  0.45466441     0.05300
C830        C  0.06666234  0.45182969  0.46591385    -0.03300
Br831      Br  0.05592467  0.47172217  0.49916260    -0.03000
H832        H  0.03080772  0.43465963  0.46269854     0.09200
H833        H  0.11705946  0.43748365  0.42253422     0.07200
Br834      Br  0.09209198  0.40084713  0.38542102    -0.03400
C835        C  0.91591971  0.42589734  0.43563532    -0.10000
C836        C  0.93283122  0.41248220  0.45360600     0.06200
C837        C  0.92692931  0.40893501  0.48456381    -0.03800
C838        C  0.90626452  0.42117802  0.00011005    -0.08200
C839        C  0.88944600  0.43430002  0.47942345     0.05300
C840        C  0.89440629  0.43655654  0.44817957    -0.03300
Br841      Br  0.87212970  0.45399345  0.42172970    -0.03000
H842        H  0.91926120  0.42791943  0.41164600     0.09200
H843        H  0.90382348  0.42004098  0.02432237     0.07200
Br844      Br  0.95104011  0.39548510  0.01440322    -0.03400
C845        C  0.95082821  0.41474950  0.33961025    -0.10000
C846        C  0.93600105  0.39610758  0.35348652     0.06200
C847        C  0.91025662  0.40006834  0.35592930    -0.03800
C848        C  0.90000381  0.42216464  0.34466516    -0.08200
C849        C  0.91504600  0.44061577  0.33096384     0.05300
C850        C  0.94070784  0.43672170  0.32867106    -0.03300
Br851      Br  0.96312589  0.46121039  0.31241241    -0.03000
H852        H  0.97085292  0.41278374  0.33796153     0.09200
H853        H  0.88002115  0.42466360  0.34599764     0.07200
Br854      Br  0.88833844  0.37581743  0.37334151    -0.03400
C855        C  0.05057034  0.44246886  0.19278069    -0.10000
C856        C  0.05928172  0.42267283  0.17535822     0.06200
C857        C  0.08517448  0.42047981  0.17018394    -0.03800
C858        C  0.10163276  0.43715487  0.18367828    -0.08200
C859        C  0.09280717  0.45658364  0.20162233     0.05300
C860        C  0.06687401  0.45939169  0.20562352    -0.03300
Br861      Br  0.05214157  0.48514454  0.22942400    -0.03000
H862        H  0.03081342  0.44466511  0.19698836     0.09200
H863        H  0.12142472  0.43533536  0.17942812     0.07200
Br864      Br  0.09926450  0.39646216  0.14343430    -0.03400
C865        C  0.92064665  0.42779219  0.18619487    -0.10000
C866        C  0.93843950  0.41572837  0.20424024     0.06200
C867        C  0.93376522  0.41349399  0.23556349    -0.03800
C868        C  0.91182934  0.42315174  0.24800737    -0.08200
C869        C  0.89459690  0.43618264  0.23016617     0.05300
C870        C  0.89893863  0.43781804  0.19878658    -0.03300
Br871      Br  0.87579268  0.45400999  0.17226088    -0.03000
H872        H  0.92350481  0.42932277  0.16209595     0.09200
H873        H  0.90931143  0.42221025  0.27218372     0.07200
Br874      Br  0.95776506  0.39971602  0.26305568    -0.03400
C875        C  0.02554510  0.37241860  0.26423443    -0.10000
C876        C  0.01502412  0.35026579  0.25382374     0.06200
C877        C  0.00900560  0.33149340  0.27475890    -0.03800
C878        C  0.01301122  0.33534765  0.30557460    -0.08200
C879        C  0.02271031  0.35790149  0.31616202     0.05300
C880        C  0.02924359  0.37646859  0.29497190    -0.03300
Br881      Br  0.04362025  0.40760528  0.30618875    -0.03000
H882        H  0.03044018  0.38700221  0.24831992     0.09200
H883        H  0.00772655  0.32086044  0.32141456     0.07200
Br884      Br  0.99619749  0.30005993  0.26238826    -0.03400
C885        C  0.01018512  0.33556412  0.05640442    -0.10000
C886        C  0.02256671  0.35732285  0.06524122     0.06200
C887        C  0.03009338  0.37457227  0.04314204    -0.03800
C888        C  0.02439722  0.37035170  0.01308887    -0.08200
C889        C  0.01134271  0.34904623  0.00422579     0.05300
C890        C  0.00449206  0.33132118  0.02611275    -0.03300
Br891      Br  0.98830552  0.30089557  0.01591068    -0.03000
H892        H  0.00410224  0.32218752  0.07323314     0.09200
H893        H  0.03005486  0.38410851  0.99645743     0.07200
Br894      Br  0.04878467  0.40386169  0.05229917    -0.03400
C895        C  0.89893546  0.42346940  0.10097186    -0.10000
C896        C  0.91240332  0.44100520  0.08351267     0.06200
C897        C  0.93760162  0.43646767  0.07736074    -0.03800
C898        C  0.94861433  0.41476695  0.08788848    -0.08200
C899        C  0.93540514  0.39708524  0.10543845     0.05300
C900        C  0.91021599  0.40178128  0.11211224    -0.03300
Br901      Br  0.89042800  0.37960025  0.13629381    -0.03000
H902        H  0.87935795  0.42640966  0.10564216     0.09200
H903        H  0.96823130  0.41234453  0.08301696     0.07200
Br904      Br  0.95860416  0.45966069  0.05612434    -0.03400
C905        C  0.50634019  0.69068735  0.27527256    -0.10000
C906        C  0.50788630  0.67058895  0.25581674     0.06200
C907        C  0.51536902  0.64739197  0.26741981    -0.03800
C908        C  0.52238046  0.64481827  0.29740763    -0.08200
C909        C  0.52120457  0.66475368  0.31727064     0.05300
C910        C  0.51262332  0.68794771  0.30586283    -0.03300
Br911      Br  0.50802288  0.71661697  0.33003208    -0.03000
H912        H  0.50070967  0.70862780  0.26656087     0.09200
H913        H  0.52825158  0.62673243  0.30534672     0.07200
Br914      Br  0.51517533  0.61789107  0.24382446    -0.03400
C915        C  0.52652193  0.63838541  0.05111586    -0.10000
C916        C  0.53024240  0.65911371  0.06939681     0.06200
C917        C  0.53085052  0.68281592  0.05537934    -0.03800
C918        C  0.52399530  0.68551906  0.02497002    -0.08200
C919        C  0.51812971  0.66479666  0.00764013     0.05300
C920        C  0.52083347  0.64102381  0.02056828    -0.03300
Br921      Br  0.51651863  0.61138085  0.99763100    -0.03000
H922        H  0.52744275  0.61993214  0.06069650     0.09200
H923        H  0.52402753  0.70375030  0.01457934     0.07200
Br924      Br  0.54282677  0.71182274  0.07548619    -0.03400
C925        C  0.26823886  0.54206383  0.26303455    -0.10000
C926        C  0.28198995  0.52003549  0.26380960     0.06200
C927        C  0.27148627  0.49839903  0.25164277    -0.03800
C928        C  0.24754974  0.49913143  0.23958034    -0.08200
C929        C  0.23348118  0.52108064  0.23924731     0.05300
C930        C  0.24431193  0.54288689  0.25091334    -0.03300
Br931      Br  0.22839178  0.57475989  0.25079702    -0.03000
H932        H  0.27621543  0.55889831  0.27189300     0.09200
H933        H  0.23986708  0.48221580  0.23060577     0.07200
Br934      Br  0.28907528  0.46755276  0.24884951    -0.03400
C935        C  0.43736300  0.58305938  0.32449780    -0.10000
C936        C  0.41154432  0.58351924  0.32487173     0.06200
C937        C  0.39927355  0.60399732  0.33814482    -0.03800
C938        C  0.41309598  0.62283535  0.35209466    -0.08200
C939        C  0.43918173  0.62214067  0.35225169     0.21300
C940        C  0.45121008  0.60172732  0.33788444    -0.03300
Br941      Br  0.48650488  0.59587375  0.33653112    -0.03000
H942        H  0.44694444  0.56762838  0.31416337     0.09200
H943        H  0.40345307  0.63818931  0.36244391     0.07200
Br944      Br  0.36387413  0.60831755  0.33572884    -0.03400
C945        C  0.42144831  0.59074671  0.18503403    -0.10000
C946        C  0.43588556  0.60547182  0.20406639     0.06200
C947        C  0.42591517  0.61157804  0.23281995    -0.03800
C948        C  0.40284496  0.60200290  0.24216980    -0.08200
C949        C  0.38941931  0.58566784  0.22402828     0.05300
C950        C  0.39855169  0.58102353  0.19456731    -0.03300
Br951      Br  0.38118533  0.56070215  0.16635091    -0.03000
H952        H  0.42788198  0.58684099  0.16238298     0.09200
H953        H  0.39654094  0.60561101  0.26494078     0.07200
Br954      Br  0.44325492  0.63131105  0.26186147    -0.03400
C955        C  0.24408689  0.54167250  0.99545233    -0.10000
C956        C  0.23265277  0.51643468  0.49257601     0.06200
C957        C  0.24937842  0.49652335  0.48745900    -0.03800
C958        C  0.27384653  0.49788988  0.49799155    -0.08200
C959        C  0.28116517  0.52141064  0.01559453     0.05300
C960        C  0.26872115  0.54311115  0.00559376    -0.03300
Br961      Br  0.28350254  0.57552146  0.00543967    -0.03000
H962        H  0.23495606  0.55842485  0.98768473     0.09200
H963        H  0.28646435  0.48265352  0.49375065     0.07200
Br964      Br  0.24091969  0.46678668  0.46629898    -0.03400
C965        C  0.41442992  0.61855169  0.10212692    -0.10000
C966        C  0.44049212  0.61822041  0.10217253     0.06200
C967        C  0.45282052  0.59762397  0.08868599    -0.03800
C968        C  0.43922112  0.57876863  0.07523380    -0.08200
C969        C  0.41336373  0.57900580  0.07552957     0.05300
C970        C  0.40085293  0.59931827  0.08881373    -0.03300
Br971      Br  0.36531298  0.60279474  0.08769482    -0.03000
H972        H  0.40458453  0.63383999  0.11232048     0.09200
H973        H  0.44897015  0.56331983  0.06520027     0.07200
Br974      Br  0.48806949  0.59164500  0.08954869    -0.03400
C975        C  0.33824400  0.50388366  0.42868067    -0.10000
C976        C  0.36080163  0.49300312  0.43808703     0.06200
C977        C  0.37861447  0.48638481  0.41633368    -0.03800
C978        C  0.37385685  0.49109212  0.38596879    -0.08200
C979        C  0.35164805  0.50261667  0.37655752     0.05300
C980        C  0.33363356  0.50890993  0.39820888    -0.03300
Br981      Br  0.30237439  0.52368371  0.38757702    -0.03000
H982        H  0.32443001  0.50932002  0.44521498     0.09200
H983        H  0.38790761  0.48599089  0.36954769     0.07200
Br984      Br  0.40941733  0.47032846  0.42641294    -0.03400
C985        C  0.33699379  0.51323381  0.14612466    -0.10000
C986        C  0.35108719  0.49889981  0.12625714     0.06200
C987        C  0.36839142  0.48163204  0.13859044    -0.03800
C988        C  0.37194715  0.48003210  0.16970222    -0.08200
C989        C  0.35820599  0.49472578  0.18923359     0.05300
C990        C  0.34024633  0.51117222  0.17726331    -0.03300
Br991      Br  0.32129317  0.53337718  0.20158203    -0.03000
H992        H  0.32374543  0.52659905  0.13743028     0.09200
H993        H  0.38568858  0.46730895  0.17874094     0.07200
Br994      Br  0.38899874  0.46005473  0.11539110    -0.03400
C995        C  0.40673908  0.59805066  0.49127955    -0.10000
C996        C  0.39125786  0.58395243  0.47281258     0.06200
C997        C  0.39856222  0.58055581  0.44240234    -0.03800
C998        C  0.42150417  0.58973056  0.43177784    -0.08200
C999        C  0.43787432  0.60233072  0.45096349     0.05300
C1000       C  0.42994582  0.60659469  0.48111250    -0.03300
Br1001     Br  0.45023284  0.62229328  0.51098191    -0.03000
H1002       H  0.39916641  0.60296599  0.01676673     0.09200
H1003       H  0.42641338  0.58713654  0.40830321     0.07200
Br1004     Br  0.37797597  0.56293530  0.41456875    -0.03400
C1005       C  0.74249280  0.51766918  0.00483649    -0.10000
C1006       C  0.73116720  0.49351613  0.49521505     0.06200
C1007       C  0.74798565  0.47432430  0.48896925    -0.03800
C1008       C  0.77197704  0.47504491  0.50105575    -0.08200
C1009       C  0.78067702  0.49702806  0.02005705     0.05300
C1010       C  0.76608541  0.51881664  0.01757203    -0.03300
Br1011     Br  0.77684075  0.55128864  0.02936997    -0.03000
H1012       H  0.73157154  0.53448715  0.00323136     0.09200
H1013       H  0.78490491  0.46045559  0.49527332     0.07200
Br1014     Br  0.73970238  0.44780036  0.46235196    -0.03400
C1015       C  0.59512676  0.58523942  0.46293838    -0.10000
C1016       C  0.59488231  0.56099375  0.45187815     0.06200
C1017       C  0.57923910  0.55537031  0.42737027    -0.03800
C1018       C  0.56328353  0.57348982  0.41566062    -0.08200
C1019       C  0.56297788  0.59753027  0.42733858     0.05300
C1020       C  0.57945372  0.60347218  0.45088995    -0.03300
Br1021     Br  0.58035742  0.63547358  0.46910629    -0.03000
H1022       H  0.60715931  0.58990654  0.48159192     0.09200
H1023       H  0.55104298  0.56878909  0.39721506     0.07200
Br1024     Br  0.57980907  0.52383664  0.40773902    -0.03400
C1025       C  0.74858349  0.52047325  0.24812482    -0.10000
C1026       C  0.73614725  0.49779066  0.24443203     0.06200
C1027       C  0.74897793  0.47573006  0.25198704    -0.03800
C1028       C  0.77347146  0.47686665  0.26279782    -0.08200
C1029       C  0.78576483  0.49961958  0.26661485     0.05300
C1030       C  0.77294651  0.52162245  0.25896242    -0.03300
Br1031     Br  0.78760019  0.55402525  0.26109156    -0.03000
H1032       H  0.73927859  0.53769137  0.24256903     0.09200
H1033       H  0.78294151  0.45973780  0.26835250     0.07200
Br1034     Br  0.73485799  0.44334404  0.24732125    -0.03400
C1035       C  0.58103214  0.55985613  0.18411109    -0.10000
C1036       C  0.59783918  0.56684817  0.20660653     0.06200
C1037       C  0.59703377  0.59130308  0.21760469    -0.03800
C1038       C  0.57952188  0.60808850  0.20598977    -0.08200
C1039       C  0.56247014  0.60076501  0.18391267     0.05300
C1040       C  0.56347662  0.57644636  0.17281982    -0.03300
Br1041     Br  0.54199927  0.56498206  0.14135689    -0.03000
H1042       H  0.58156847  0.54128904  0.17511621     0.09200
H1043       H  0.57860061  0.62662575  0.21501163     0.07200
Br1044     Br  0.61772819  0.60230187  0.25001931    -0.03400
C1045       C  0.67788065  0.51012767  0.32851422    -0.10000
C1046       C  0.66017531  0.52767546  0.31892932     0.06200
C1047       C  0.64563924  0.53991724  0.34039658    -0.03800
C1048       C  0.64866958  0.53430561  0.37085969    -0.08200
C1049       C  0.66598109  0.51636131  0.38075510     0.05300
C1050       C  0.68078820  0.50422573  0.35913009    -0.03300
Br1051     Br  0.70540847  0.47990671  0.36959156    -0.03000
H1052       H  0.68895545  0.50034205  0.31198329     0.09200
H1053       H  0.63698854  0.54393214  0.38690084     0.07200
Br1054     Br  0.62197424  0.56500714  0.32945242    -0.03400
C1055       C  0.68009276  0.51472994  0.07839674    -0.10000
C1056       C  0.65998634  0.52940974  0.06854799     0.06200
C1057       C  0.64490125  0.54102856  0.09011939    -0.03800
C1058       C  0.64942028  0.53702490  0.12081528    -0.08200
C1059       C  0.66870637  0.52124514  0.13084085     0.05300
C1060       C  0.68448647  0.51047317  0.10917044    -0.03300
Br1061     Br  0.71258891  0.49042159  0.11997584    -0.03000
H1062       H  0.69195977  0.50572370  0.06200600     0.09200
H1063       H  0.63720572  0.54585321  0.13696927     0.07200
Br1064     Br  0.61831320  0.56296536  0.07895761    -0.03400
C1065       C  0.46357432  0.45249433  0.32893678    -0.10000
C1066       C  0.45694718  0.42738372  0.33092715     0.06200
C1067       C  0.43367500  0.41998300  0.31922490    -0.03800
C1068       C  0.41771652  0.43757193  0.30639921    -0.08200
C1069       C  0.42429503  0.46271764  0.30438852     0.05300
C1070       C  0.44773328  0.47008564  0.31590262    -0.03300
Br1071     Br  0.46005826  0.50354149  0.31485803    -0.03000
H1072       H  0.48134534  0.45861948  0.33760247     0.09200
H1073       H  0.40000817  0.43134669  0.29767549     0.07200
Br1074     Br  0.42263138  0.38616287  0.31820849    -0.03400
C1075       C  0.59309220  0.40760386  0.28731086    -0.10000
C1076       C  0.58087864  0.41802899  0.31250512     0.06200
C1077       C  0.59175101  0.43911595  0.32566686    -0.03800
C1078       C  0.61340208  0.44946113  0.31312804    -0.08200
C1079       C  0.62442613  0.44028170  0.28646745     0.05300
C1080       C  0.61449705  0.41836041  0.27436644    -0.03300
Br1081     Br  0.62871941  0.40222419  0.24002331    -0.03000
H1082       H  0.58588793  0.39090153  0.27724972     0.09200
H1083       H  0.62064180  0.46611663  0.32331935     0.07200
Br1084     Br  0.57754596  0.45618661  0.35944054    -0.03400
C1085       C  0.56979240  0.40341459  0.44007743    -0.10000
C1086       C  0.57966148  0.39211094  0.41402905     0.06200
C1087       C  0.60196134  0.40169182  0.40183529    -0.03800
C1088       C  0.61211138  0.42346681  0.41356744    -0.08200
C1089       C  0.60047174  0.43641579  0.43733708     0.05300
C1090       C  0.57927803  0.42563633  0.45105320    -0.03300
Br1091     Br  0.56071885  0.44081331  0.48309268    -0.03000
H1092       H  0.55292281  0.39623322  0.45043219     0.09200
H1093       H  0.62908818  0.43053997  0.40342628     0.07200
Br1094     Br  0.61905763  0.38676228  0.36854320    -0.03400
C1095       C  0.41577161  0.43423051  0.05619614    -0.10000
C1096       C  0.42396574  0.45821475  0.04849629     0.06200
C1097       C  0.44911440  0.46445310  0.05408576    -0.03800
C1098       C  0.46484003  0.44730604  0.06792573    -0.08200
C1099       C  0.45644639  0.42370569  0.07690103     0.05300
C1100       C  0.43144483  0.41721405  0.07077035    -0.03300
Br1101     Br  0.41672897  0.38611424  0.08237688    -0.03000
H1102       H  0.39661069  0.42899239  0.05221094     0.09200
H1103       H  0.48395657  0.45274764  0.07182613     0.07200
Br1104     Br  0.46410177  0.49570238  0.04333806    -0.03400
C1105       C  0.59471657  0.40665998  0.04116750    -0.10000
C1106       C  0.58121023  0.41855951  0.06426209     0.06200
C1107       C  0.59163368  0.43980887  0.07742296    -0.03800
C1108       C  0.61421487  0.44910253  0.06649286    -0.08200
C1109       C  0.62622748  0.43875923  0.04117004     0.05300
C1110       C  0.61697931  0.41636814  0.02975062    -0.03300
Br1111     Br  0.63317800  0.39828047  0.99818278    -0.03000
H1112       H  0.58789715  0.38962825  0.03154004     0.09200
H1113       H  0.61701859  0.46560511  0.57171163     0.07200
Br1114     Br  0.57024987  0.45991077  0.60164150    -0.03400
C1115       C  0.61416904  0.42788259  0.16388840    -0.10000
C1116       C  0.60213168  0.44289595  0.18544210     0.06200
C1117       C  0.57896868  0.43483610  0.19701799    -0.03800
C1118       C  0.56820025  0.41309847  0.18630400    -0.08200
C1119       C  0.57937840  0.39891529  0.16329445     0.05300
C1120       C  0.60320618  0.40612601  0.15299144    -0.03300
Br1121     Br  0.62201470  0.38715732  0.12451420    -0.03000
H1122       H  0.63248102  0.43289618  0.15553238     0.09200
H1123       H  0.55002080  0.40808527  0.19510826     0.07200
Br1124     Br  0.56003033  0.45279732  0.22648381    -0.03400
C1125       C  0.50528047  0.33891457  0.48905874    -0.10000
C1126       C  0.50512611  0.35561236  0.00767627     0.06200
C1127       C  0.48219314  0.37692433  0.49608545    -0.03800
C1128       C  0.47867042  0.37884046  0.46499494    -0.08200
C1129       C  0.48858038  0.36123714  0.44547709     0.05300
C1130       C  0.50200637  0.34103329  0.45785869    -0.03300
Br1131     Br  0.51902199  0.31719653  0.43383495    -0.03000
H1132       H  0.51593001  0.32352638  0.49807505     0.09200
H1133       H  0.46894718  0.39479873  0.45587995     0.07200
Br1134     Br  0.50917031  0.40864774  0.01883977    -0.03400
C1135       C  0.49721238  0.33613584  0.23982227    -0.10000
C1136       C  0.50092893  0.35706652  0.25741518     0.06200
C1137       C  0.49857968  0.38073154  0.24425467    -0.03800
C1138       C  0.49330527  0.38315762  0.21363825    -0.08200
C1139       C  0.49003966  0.36227471  0.19539158     0.05300
C1140       C  0.49152540  0.33846784  0.20913910    -0.03300
Br1141     Br  0.48565237  0.30817313  0.18841051    -0.03000
H1142       H  0.49818978  0.31790885  0.25016694     0.09200
H1143       H  0.49245228  0.40163010  0.20399327     0.07200
Br1144     Br  0.50350960  0.41046537  0.26683260    -0.03400
C1145       C  0.87063097  0.99018975  0.37639728    -0.10000
C1146       C  0.84750648  0.99932977  0.38627185     0.06200
C1147       C  0.82837823  0.00300036  0.36525967    -0.03800
C1148       C  0.83286110  0.99810152  0.33475561    -0.08200
C1149       C  0.85628317  0.98955679  0.32470989     0.05300
C1150       C  0.87515875  0.98523268  0.34607751    -0.03300
Br1151     Br  0.90715250  0.97171943  0.33586766    -0.03000
H1152       H  0.88542382  0.98688163  0.39250464     0.09200
H1153       H  0.81808083  0.00160026  0.31872821     0.07200
Br1154     Br  0.79568643  0.01336179  0.37720571    -0.03400
C1155       C  0.83070661  0.99824987  0.08525877    -0.10000
C1156       C  0.85348433  0.98851314  0.07479420     0.06200
C1157       C  0.87182795  0.98179375  0.09592418    -0.03800
C1158       C  0.86758949  0.98581386  0.12651367    -0.08200
C1159       C  0.84536685  0.99666314  0.13681871     0.05300
C1160       C  0.82655450  0.00240101  0.11599594    -0.03300
Br1161     Br  0.79480396  0.01512099  0.12833155    -0.03000
H1162       H  0.81640785  0.00362684  0.06939393     0.09200
H1163       H  0.88213119  0.98093503  0.14236863     0.07200
Br1164     Br  0.90293613  0.96685267  0.08476649    -0.03400
C1165       C  0.96814272  0.24375430  0.37541551    -0.10000
C1166       C  0.99107448  0.23177528  0.37099069     0.06200
C1167       C  0.01322979  0.24461904  0.37786402    -0.03800
C1168       C  0.01202424  0.26887865  0.38822537    -0.08200
C1169       C  0.98915242  0.28104878  0.39228655     0.05300
C1170       C  0.96694525  0.26807821  0.38589907    -0.03300
Br1171     Br  0.93428609  0.28169672  0.39185020    -0.03000
H1172       H  0.95091558  0.23418051  0.37057246     0.09200
H1173       H  0.02932415  0.27831741  0.39307520     0.07200
Br1174     Br  0.04590530  0.23023435  0.37524794    -0.03400
C1175       C  0.94513573  0.10515114  0.42998121    -0.10000
C1176       C  0.93228936  0.12085157  0.40957924     0.06200
C1177       C  0.90766028  0.11460406  0.40202322    -0.03800
C1178       C  0.89681195  0.09308840  0.41443840    -0.08200
C1179       C  0.91011848  0.07721587  0.43418301     0.05300
C1180       C  0.93465659  0.08355196  0.44170473    -0.03300
Br1181     Br  0.95581397  0.06310347  0.46642752    -0.03000
H1182       H  0.96423417  0.10895309  0.43617294     0.09200
H1183       H  0.87768371  0.08892447  0.40877208     0.07200
Br1184     Br  0.88792278  0.13447057  0.37516940    -0.03400
C1185       C  0.89794526  0.09849360  0.26926186    -0.10000
C1186       C  0.88492805  0.08115866  0.28703293     0.06200
C1187       C  0.89304358  0.07692680  0.31693115    -0.03800
C1188       C  0.91511711  0.08764606  0.32719599    -0.08200
C1189       C  0.92919622  0.10373485  0.30879761     0.05300
C1190       C  0.91969566  0.10987001  0.27977042    -0.03300
Br1191     Br  0.93556495  0.13268050  0.25224827    -0.03000
H1192       H  0.89227039  0.10190444  0.24617644     0.09200
H1193       H  0.92108544  0.08352554  0.34999236     0.07200
Br1194     Br  0.87490782  0.05616526  0.34472443    -0.03400
C1195       C  0.97034059  0.24372461  0.13786745    -0.10000
C1196       C  0.98760813  0.23601673  0.11595117     0.06200
C1197       C  0.00539120  0.25338170  0.10505654    -0.03800
C1198       C  0.00689306  0.27685572  0.11793911    -0.08200
C1199       C  0.99009484  0.28414788  0.14036605     0.05300
C1200       C  0.97123816  0.26765125  0.14970798    -0.03300
Br1201     Br  0.94708872  0.27652821  0.17968980    -0.03000
H1202       H  0.95637688  0.23095473  0.14636413     0.09200
H1203       H  0.02084474  0.28978929  0.10975543     0.07200
Br1204     Br  0.02707523  0.24730326  0.07129556    -0.03400
C1205       C  0.89519304  0.09423414  0.16580962    -0.10000
C1206       C  0.90821991  0.07829431  0.18574556     0.06200
C1207       C  0.93264497  0.08481804  0.19381629    -0.03800
C1208       C  0.94339697  0.10634478  0.18199176    -0.08200
C1209       C  0.93088841  0.12200601  0.16122632     0.05300
C1210       C  0.90622346  0.11580684  0.15358034    -0.03300
Br1211     Br  0.88655315  0.13600971  0.12707383    -0.03000
H1212       H  0.87611665  0.09008990  0.15987134     0.09200
H1213       H  0.96241636  0.11017823  0.18847552     0.07200
Br1214     Br  0.95330490  0.06475439  0.21960592    -0.03400
C1215       C  0.02025135  0.13970886  0.49738123    -0.10000
C1216       C  0.00653194  0.16501309  0.00612273     0.06200
C1217       C  0.00732826  0.18166008  0.48598078    -0.03800
C1218       C  0.01190248  0.17723112  0.45526765    -0.08200
C1219       C  0.02023285  0.15394770  0.44511653     0.05300
C1220       C  0.02452945  0.13511092  0.46677287    -0.03300
Br1221     Br  0.03686330  0.10288830  0.45649719    -0.03000
H1222       H  0.02422620  0.12950423  0.01376892     0.09200
H1223       H  0.00827227  0.19197307  0.43914792     0.07200
Br1224     Br  0.99675061  0.21408408  0.49761387    -0.03400
C1225       C  0.01376388  0.13884318  0.21315400    -0.10000
C1226       C  0.02000817  0.15906524  0.19447864     0.06200
C1227       C  0.02223214  0.18278096  0.20776213    -0.03800
C1228       C  0.01656766  0.18584655  0.23850050    -0.08200
C1229       C  0.00935194  0.16559351  0.25647506     0.05300
C1230       C  0.00886952  0.14185126  0.24372626    -0.03300
Br1231     Br  0.00177765  0.11253209  0.26699740    -0.03000
H1232       H  0.01217288  0.12043305  0.20392925     0.09200
H1233       H  0.01840158  0.20394012  0.24855203     0.07200
Br1234     Br  0.03375938  0.21154559  0.18601574    -0.03400
C1235       C  0.89834387  0.09890887  0.02034382    -0.10000
C1236       C  0.88514785  0.08143579  0.03770381     0.06200
C1237       C  0.89325669  0.07674186  0.06759926    -0.03800
C1238       C  0.91518554  0.08757465  0.07835951    -0.08200
C1239       C  0.92929471  0.10393479  0.06036937     0.05300
C1240       C  0.92003196  0.11016258  0.03122999    -0.03300
Br1241     Br  0.93618103  0.13310290  0.00402313    -0.03000
H1242       H  0.89795059  0.09999313  0.49598461     0.09200
H1243       H  0.92100662  0.08336908  0.10119601     0.07200
Br1244     Br  0.87525728  0.05539273  0.09491915    -0.03400
C1245       C  0.04505005  0.77110205  0.38827844    -0.10000
C1246       C  0.02181236  0.78282340  0.39118310     0.06200
C1247       C  0.00032177  0.77020342  0.38145213    -0.03800
C1248       C  0.00228746  0.74616824  0.37050330    -0.08200
C1249       C  0.02537292  0.73402270  0.36843212     0.05300
C1250       C  0.04706558  0.74704552  0.37695879    -0.03300
Br1251     Br  0.08011060  0.73387628  0.37288192    -0.03000
H1252       H  0.06184061  0.78067775  0.39497550     0.09200
H1253       H  0.98537833  0.73689400  0.36364328     0.07200
Br1254     Br  0.96772255  0.78485632  0.38061970    -0.03400
C1255       C  0.95688364  0.94574109  0.42625418    -0.10000
C1256       C  0.95305466  0.92036857  0.43146245     0.06200
C1257       C  0.93222399  0.91282064  0.44875024    -0.03800
C1258       C  0.91603156  0.93058558  0.46064266    -0.08200
C1259       C  0.92005302  0.95605072  0.45582702     0.05300
C1260       C  0.94070739  0.96350675  0.43791580    -0.03300
Br1261     Br  0.94800448  0.99732943  0.42714826    -0.03000
H1262       H  0.97261212  0.95188813  0.41274087     0.09200
H1263       H  0.90041968  0.92436294  0.47427685     0.07200
Br1264     Br  0.92564102  0.87881003  0.45882105    -0.03400
C1265       C  0.03650660  0.77708841  0.11758320    -0.10000
C1266       C  0.02165949  0.78319888  0.14269644     0.06200
C1267       C  0.00788290  0.76415666  0.15723624    -0.03800
C1268       C  0.00841811  0.74011843  0.14591042    -0.08200
C1269       C  0.02279532  0.73427468  0.12059035     0.05300
C1270       C  0.03698529  0.75291262  0.10637164    -0.03300
Br1271     Br  0.05550051  0.74661139  0.07019649    -0.03000
H1272       H  0.04697676  0.79137499  0.10581034     0.09200
H1273       H  0.99738773  0.72585220  0.15691998     0.07200
Br1274     Br  0.98856843  0.76911216  0.19320646    -0.03400
C1275       C  0.91501437  0.93108028  0.21280916    -0.10000
C1276       C  0.91793566  0.95645034  0.20634108     0.06200
C1277       C  0.93687410  0.96390557  0.18591590    -0.03800
C1278       C  0.95320206  0.94631606  0.17417512    -0.08200
C1279       C  0.95075948  0.92108717  0.18142542     0.05300
C1280       C  0.93103710  0.91343507  0.20043800    -0.03300
Br1281     Br  0.92574953  0.87948633  0.21191674    -0.03000
H1282       H  0.90042316  0.92487898  0.22803078     0.09200
H1283       H  0.96782011  0.95241426  0.15890438     0.07200
Br1284     Br  0.94093204  0.99736876  0.17146229    -0.03400
C1285       C  0.99842235  0.83507547  0.30634920    -0.10000
C1286       C  0.99102727  0.85853043  0.31696662     0.06200
C1287       C  0.98970856  0.87829501  0.29579376    -0.03800
C1288       C  0.99504191  0.87412074  0.26540428    -0.08200
C1289       C  0.00237333  0.85083430  0.25487895     0.05300
C1290       C  0.00426380  0.83114888  0.27577423    -0.03300
Br1291     Br  0.01380478  0.79862851  0.26345990    -0.03000
H1292       H  0.00019955  0.81950186  0.32223473     0.09200
H1293       H  0.99336189  0.88963113  0.24937348     0.07200
Br1294     Br  0.98051347  0.91155175  0.30609451    -0.03400
C1295       C  0.98663140  0.87907409  0.04731919    -0.10000
C1296       C  0.98518367  0.85854716  0.06691103     0.06200
C1297       C  0.98898012  0.83457261  0.05463694    -0.03800
C1298       C  0.99475399  0.83191505  0.02391395    -0.08200
C1299       C  0.99649799  0.85259901  0.00485680     0.05300
C1300       C  0.99217689  0.87629364  0.01678486    -0.03300
Br1301     Br  0.00173254  0.90351252  0.49458792    -0.03000
H1302       H  0.98412718  0.89761550  0.05586821     0.09200
H1303       H  0.99740214  0.81359143  0.01474465     0.07200
Br1304     Br  0.98675071  0.80440589  0.07772721    -0.03400
C1305       C  0.08485967  0.08207255  0.29228283    -0.10000
C1306       C  0.08326765  0.05687361  0.29997599     0.06200
C1307       C  0.06594202  0.04923929  0.32229529    -0.03800
C1308       C  0.05011034  0.06665508  0.33538487    -0.08200
C1309       C  0.05180025  0.09182930  0.32762956     0.05300
C1310       C  0.06959268  0.09952593  0.30603389    -0.03300
Br1311     Br  0.07353827  0.13327616  0.29311342    -0.03000
H1312       H  0.09811056  0.08833768  0.27536652     0.09200
H1313       H  0.03678834  0.06057887  0.35232495     0.07200
Br1314     Br  0.06415202  0.01599197  0.33794885    -0.03400
C1315       C  0.11155642  0.92021964  0.33971288    -0.10000
C1316       C  0.09741936  0.93720701  0.32233427     0.06200
C1317       C  0.07185954  0.93285499  0.31899272    -0.03800
C1318       C  0.06102916  0.91217800  0.33273526    -0.08200
C1319       C  0.07484276  0.89525577  0.35068325     0.05300
C1320       C  0.10053126  0.89947432  0.35387653    -0.03300
Br1321     Br  0.12143708  0.87740710  0.37644349    -0.03000
H1322       H  0.13142544  0.92293893  0.34209760     0.09200
H1323       H  0.04112339  0.91002306  0.33001385     0.07200
Br1324     Br  0.05015421  0.95513345  0.29764468    -0.03400
C1325       C  0.09175437  0.92926118  0.17894184    -0.10000
C1326       C  0.07585555  0.91539612  0.19782873     0.06200
C1327       C  0.08390109  0.91019219  0.22773757    -0.03800
C1328       C  0.10649212  0.91970113  0.23826991    -0.08200
C1329       C  0.12143129  0.93504867  0.22009225     0.05300
C1330       C  0.11440162  0.93869073  0.18961886    -0.03300
Br1331     Br  0.13503834  0.95690200  0.16177106    -0.03000
H1332       H  0.08677151  0.93252056  0.15559842     0.09200
H1333       H  0.11120972  0.91687484  0.26177679     0.07200
Br1334     Br  0.06436019  0.89174325  0.25665790    -0.03400
C1335       C  0.04325209  0.07841756  0.05941538    -0.10000
C1336       C  0.05266202  0.09705114  0.07809678     0.06200
C1337       C  0.07872088  0.09904748  0.08183037    -0.03800
C1338       C  0.09453020  0.08261366  0.06686530    -0.08200
C1339       C  0.08494568  0.06389313  0.04848629     0.05300
C1340       C  0.05900967  0.06193079  0.04476962    -0.03300
Br1341     Br  0.04381519  0.03804301  0.01884907    -0.03000
H1342       H  0.02339546  0.07677478  0.05575692     0.09200
H1343       H  0.11443597  0.08402030  0.07031749     0.07200
Br1344     Br  0.09412099  0.12258713  0.10808131    -0.03400
C1345       C  0.10771919  0.92536909  0.08746360    -0.10000
C1346       C  0.09452755  0.94069221  0.06697971     0.06200
C1347       C  0.07034817  0.93332564  0.05870395    -0.03800
C1348       C  0.05972755  0.91210063  0.07183835    -0.08200
C1349       C  0.07230595  0.89755294  0.09379235     0.05300
C1350       C  0.09701361  0.90405382  0.10060849    -0.03300
Br1351     Br  0.11723301  0.88462977  0.12734699    -0.03000
H1352       H  0.12673241  0.92987021  0.09332942     0.09200
H1353       H  0.04077810  0.90767566  0.06556632     0.07200
Br1354     Br  0.04997285  0.95180059  0.03091691    -0.03400
C1355       C  0.17182677  0.01816139  0.42330763    -0.10000
C1356       C  0.14939554  0.02821262  0.43430546     0.06200
C1357       C  0.13089132  0.03532285  0.41352468    -0.03800
C1358       C  0.13469247  0.03145380  0.38271202    -0.08200
C1359       C  0.15659663  0.02024523  0.37184796     0.05300
C1360       C  0.17547297  0.01398790  0.39246270    -0.03300
Br1361     Br  0.20672438  0.00028411  0.37985061    -0.03000
H1362       H  0.18628074  0.01254015  0.43890608     0.09200
H1363       H  0.12006228  0.03671350  0.36716206     0.07200
Br1364     Br  0.10025276  0.05074123  0.42560556    -0.03400
C1365       C  0.12769711  0.02624347  0.16296995    -0.10000
C1366       C  0.14811514  0.02638687  0.18261638     0.06200
C1367       C  0.17223324  0.02211750  0.17037226    -0.03800
C1368       C  0.17531874  0.01813418  0.13942667    -0.08200
C1369       C  0.15485043  0.01811771  0.12020457     0.05300
C1370       C  0.13084850  0.02197345  0.13222083    -0.03300
Br1371     Br  0.10138996  0.01947175  0.10813987    -0.03000
H1372       H  0.10899139  0.02873079  0.17163656     0.09200
H1373       H  0.19380697  0.01515441  0.13029415     0.07200
Br1374     Br  0.20191122  0.01988720  0.19392813    -0.03400
C1375       C  0.09096165  0.92904070  0.43144684    -0.10000
C1376       C  0.07795249  0.91254785  0.45044735     0.06200
C1377       C  0.08909275  0.90549724  0.47827314    -0.03800
C1378       C  0.11143906  0.91643272  0.48723059    -0.08200
C1379       C  0.12310113  0.93461791  0.46939213     0.05300
C1380       C  0.11336594  0.93976108  0.44042147    -0.03300
Br1381     Br  0.12045428  0.97022329  0.91078757    -0.03000
H1382       H  0.08375275  0.93369092  0.40932175     0.09200
H1383       H  0.11847365  0.91224119  0.50957564     0.07200
Br1384     Br  0.07484742  0.88205964  0.50640005    -0.03400
C1385       C  0.73471925  0.00049120  0.24617382    -0.10000
C1386       C  0.72732326  0.01752605  0.26803133     0.06200
C1387       C  0.74454034  0.03495150  0.27863762    -0.03800
C1388       C  0.76904802  0.03464173  0.26799070    -0.08200
C1389       C  0.77677056  0.01735418  0.24639195     0.05300
C1390       C  0.75905928  0.00049884  0.23488236    -0.03300
Br1391     Br  0.76605898  0.97807765  0.20253266    -0.03000
H1392       H  0.72130837  0.98746131  0.23735322     0.09200
H1393       H  0.78223962  0.04772208  0.27713717     0.07200
Br1394     Br  0.73583647  0.05861209  0.30889245    -0.03400
C1395       C  0.76830190  0.99667505  0.50892486    -0.10000
C1396       C  0.77986914  0.01916489  0.50115701     0.06200
C1397       C  0.75905489  0.03573208  0.98594197    -0.03800
C1398       C  0.73481974  0.03556232  0.99749774    -0.08200
C1399       C  0.72823328  0.02004025  0.02191092     0.05300
C1400       C  0.74378713  0.99584664  0.51964460    -0.03300
Br1401     Br  0.73095507  0.96349073  0.52939026    -0.03000
H1402       H  0.77847322  0.97946291  0.50680727     0.09200
H1403       H  0.72092030  0.04719603  0.98683320     0.07200
Br1404     Br  0.76621620  0.05626859  0.95145153    -0.03400
C1405       C  0.67184538  0.00496278  0.43447115    -0.10000
C1406       C  0.65188429  0.99025758  0.44480939     0.06200
C1407       C  0.63656240  0.97854799  0.42375374    -0.03800
C1408       C  0.64114555  0.98195296  0.39295241    -0.08200
C1409       C  0.66053607  0.99747729  0.38235443     0.05300
C1410       C  0.67605397  0.00899657  0.40361886    -0.03300
Br1411     Br  0.70293664  0.03066663  0.39243620    -0.03000
H1412       H  0.68357977  0.01435679  0.45055836     0.09200
H1413       H  0.62885298  0.97291520  0.37718755     0.07200
Br1414     Br  0.60949877  0.95739158  0.43580391    -0.03400
C1415       C  0.67117866  0.99950808  0.18413649    -0.10000
C1416       C  0.64836957  0.98934565  0.19414741     0.06200
C1417       C  0.63012640  0.98344480  0.17269291    -0.03800
C1418       C  0.63475638  0.98814023  0.14213392    -0.08200
C1419       C  0.65722249  0.99903869  0.13223716     0.05300
C1420       C  0.67563619  0.00455101  0.15355701    -0.03300
Br1421     Br  0.70730176  0.01825653  0.14224647    -0.03000
H1422       H  0.68538097  0.00440878  0.20030483     0.09200
H1423       H  0.62043764  0.98357554  0.12595011     0.07200
Br1424     Br  0.59888066  0.96842271  0.18346303    -0.03400
C1425       C  0.49722390  0.24861726  0.38560730    -0.10000
C1426       C  0.52007538  0.23666883  0.39073368     0.06200
C1427       C  0.54229395  0.24992351  0.38487151    -0.03800
C1428       C  0.54119402  0.27416790  0.37351466    -0.08200
C1429       C  0.51832145  0.28590891  0.36772039     0.05300
C1430       C  0.49608365  0.27273284  0.37398498    -0.03300
Br1431     Br  0.46331639  0.28636105  0.36863724    -0.03000
H1432       H  0.47992064  0.23895972  0.39015747     0.09200
H1433       H  0.55847792  0.28399934  0.36947435     0.07200
Br1434     Br  0.57481188  0.23696878  0.39351590    -0.03400
C1435       C  0.60981142  0.10127925  0.99316581    -0.10000
C1436       C  0.62219772  0.08246548  0.47701790     0.06200
C1437       C  0.61314481  0.07700562  0.44783592    -0.03800
C1438       C  0.59163857  0.08847041  0.43680717    -0.08200
C1439       C  0.57887902  0.10633000  0.45359210     0.05300
C1440       C  0.58930409  0.11354607  0.48168091    -0.03300
Br1441     Br  0.57506016  0.13908713  0.00639048    -0.03000
H1442       H  0.61606507  0.10578817  0.01564792     0.09200
H1443       H  0.58502512  0.08343816  0.41465263     0.07200
Br1444     Br  0.62890173  0.05353820  0.42177892    -0.03400
C1445       C  0.61190235  0.09421710  0.34991697    -0.10000
C1446       C  0.59814765  0.07790510  0.33162111     0.06200
C1447       C  0.57347222  0.08404747  0.32448007    -0.03800
C1448       C  0.56338561  0.10617592  0.33467604    -0.08200
C1449       C  0.57680251  0.12254495  0.35337702     0.05300
C1450       C  0.60144582  0.11622938  0.36094437    -0.03300
Br1451     Br  0.62181729  0.13688343  0.38563042    -0.03000
H1452       H  0.63110222  0.09006950  0.35534277     0.09200
H1453       H  0.54418790  0.10987053  0.32880134     0.07200
Br1454     Br  0.55169863  0.06236468  0.30273742    -0.03400
C1455       C  0.54507353  0.24777615  0.13185829    -0.10000
C1456       C  0.52233605  0.23730813  0.14153835     0.06200
C1457       C  0.50047531  0.25182604  0.13957836    -0.03800
C1458       C  0.50177056  0.27576509  0.12784399    -0.08200
C1459       C  0.52448271  0.28648113  0.11916077     0.05300
C1460       C  0.54634959  0.27213819  0.12089047    -0.03300
Br1461     Br  0.57804355  0.28390698  0.10660799    -0.03000
H1462       H  0.56202991  0.23695462  0.13266949     0.09200
H1463       H  0.48470947  0.28637289  0.12618757     0.07200
Br1464     Br  0.46778233  0.24068482  0.15137687    -0.03400
C1465       C  0.59396822  0.08918911  0.18600707    -0.10000
C1466       C  0.58033096  0.10621075  0.20308784     0.06200
C1467       C  0.58904791  0.11191541  0.23253084    -0.03800
C1468       C  0.60968604  0.09947346  0.24451849    -0.08200
C1469       C  0.62218482  0.08126429  0.22808133     0.05300
C1470       C  0.61474277  0.07705050  0.19797816    -0.03300
Br1471     Br  0.63181525  0.05438254  0.17210100    -0.03000
H1472       H  0.58857026  0.08530606  0.16302459     0.09200
H1473       H  0.61473792  0.10274790  0.26778029     0.07200
Br1474     Br  0.57350524  0.13535322  0.25903275    -0.03400
C1475       C  0.49968367  0.18794099  0.27266979    -0.10000
C1476       C  0.50484758  0.16763549  0.25447634     0.06200
C1477       C  0.50325595  0.14358161  0.26687672    -0.03800
C1478       C  0.49731392  0.14019523  0.29725010    -0.08200
C1479       C  0.49207294  0.16041265  0.31590368     0.05300
C1480       C  0.49297158  0.18460064  0.30301662    -0.03300
Br1481     Br  0.48445726  0.21406882  0.32439347    -0.03000
H1482       H  0.49988418  0.20640625  0.26291530     0.09200
H1483       H  0.49696377  0.12149794  0.30627403     0.07200
Br1484     Br  0.50881294  0.11446066  0.24331015    -0.03400
C1485       C  0.48905807  0.14108728  0.04751638    -0.10000
C1486       C  0.48896735  0.16166910  0.06657517     0.06200
C1487       C  0.49218051  0.18555582  0.05336343    -0.03800
C1488       C  0.49678519  0.18805178  0.02230594    -0.08200
C1489       C  0.49768152  0.16727283  0.00384617     0.05300
C1490       C  0.49330914  0.14370120  0.01663814    -0.03300
Br1491     Br  0.50244967  0.11399680  0.49222002    -0.03000
H1492       H  0.48669673  0.12259530  0.05675581     0.09200
H1493       H  0.49947767  0.20630556  0.01248222     0.07200
Br1494     Br  0.49107807  0.21572731  0.07562495    -0.03400
C1495       C  0.61190612  0.09603870  0.09694094    -0.10000
C1496       C  0.59817025  0.08125243  0.07673502     0.06200
C1497       C  0.57516820  0.09025923  0.06629506    -0.03800
C1498       C  0.56601867  0.11263942  0.07707480    -0.08200
C1499       C  0.57874179  0.12655169  0.09908281     0.05300
C1500       C  0.60251797  0.11847998  0.10796402    -0.03300
Br1501     Br  0.62313305  0.13728565  0.13451122    -0.03000
H1502       H  0.63024958  0.09023962  0.10418557     0.09200
H1503       H  0.54782608  0.11838159  0.06919464     0.07200
Br1504     Br  0.55419814  0.07258841  0.03879890    -0.03400
C1505       C  0.51221112  0.77437510  0.38197843    -0.10000
C1506       C  0.48899347  0.78539887  0.37659660     0.06200
C1507       C  0.46719194  0.77160013  0.38314213    -0.03800
C1508       C  0.46915718  0.74719366  0.39383354    -0.08200
C1509       C  0.49246446  0.73619344  0.39907315     0.05300
C1510       C  0.51420815  0.75046669  0.39377628    -0.03300
Br1511     Br  0.54760551  0.73870668  0.40022986    -0.03000
H1512       H  0.52918542  0.78465036  0.37756625     0.09200
H1513       H  0.45226894  0.73669977  0.39791912     0.07200
Br1514     Br  0.43411434  0.78417283  0.37709182    -0.03400
C1515       C  0.56531190  0.91764977  0.31484459    -0.10000
C1516       C  0.55031684  0.92597321  0.33859187     0.06200
C1517       C  0.55316287  0.95023332  0.34919136    -0.03800
C1518       C  0.57073891  0.96586379  0.33563486    -0.08200
C1519       C  0.58567027  0.95763823  0.31160496     0.05300
C1520       C  0.58279390  0.93325094  0.30115606    -0.03300
Br1521     Br  0.60070391  0.92061574  0.26705493    -0.03000
H1522       H  0.56297696  0.89903339  0.30640834     0.09200
H1523       H  0.57299041  0.98444476  0.34419953     0.07200
Br1524     Br  0.53470089  0.96232205  0.38314782    -0.03400
C1525       C  0.48291292  0.76774706  0.10322209    -0.10000
C1526       C  0.48367411  0.78601048  0.12542444     0.06200
C1527       C  0.48286537  0.77902701  0.15603494    -0.03800
C1528       C  0.48507955  0.75406474  0.16407427    -0.08200
C1529       C  0.48551122  0.73579670  0.14186134     0.05300
C1530       C  0.48256529  0.74267027  0.11137601    -0.03300
Br1531     Br  0.47748442  0.71865791  0.08042859    -0.03000
H1532       H  0.48215440  0.77302127  0.07960863     0.09200
H1533       H  0.48588781  0.74883847  0.18770396     0.07200
Br1534     Br  0.47783193  0.80275637  0.18732772    -0.03400
C1535       C  0.56784049  0.91664397  0.06134160    -0.10000
C1536       C  0.55341604  0.92408224  0.08607335     0.06200
C1537       C  0.55595372  0.94826977  0.09710681    -0.03800
C1538       C  0.57253202  0.96469801  0.08316378    -0.08200
C1539       C  0.58687069  0.95743486  0.05824568     0.05300
C1540       C  0.58438127  0.93314104  0.04722178    -0.03300
Br1541     Br  0.60148040  0.92204326  0.01173191    -0.03000
H1542       H  0.56561777  0.89819450  0.05237270     0.09200
H1543       H  0.57453128  0.98315476  0.09218635     0.07200
Br1544     Br  0.53817087  0.95936531  0.13209217    -0.03400
C1545       C  0.51427081  0.88233334  0.47179882    -0.10000
C1546       C  0.51744481  0.86191876  0.45276698     0.06200
C1547       C  0.51639414  0.83778773  0.46574021    -0.03800
C1548       C  0.51117568  0.83467345  0.49649963    -0.08200
C1549       C  0.50540668  0.85490189  0.01458543     0.05300
C1550       C  0.50959975  0.87913076  0.50251920    -0.03300
Br1551     Br  0.50021976  0.90784701  0.02601406    -0.03000
H1552       H  0.51488773  0.90101939  0.46273366     0.09200
H1553       H  0.51047038  0.81619999  0.50622656     0.07200
Br1554     Br  0.52202031  0.80801169  0.44373281    -0.03400
C1555       C  0.51214415  0.88251755  0.22005266    -0.10000
C1556       C  0.52091733  0.86300360  0.20220922     0.06200
C1557       C  0.52570599  0.83986071  0.21634422    -0.03800
C1558       C  0.51920250  0.83607829  0.24678103    -0.08200
C1559       C  0.50907770  0.85534659  0.26381704     0.05300
C1560       C  0.50678781  0.87900213  0.25055821    -0.03300
Br1561     Br  0.49703286  0.90748919  0.27320453    -0.03000
H1562       H  0.50892056  0.90065174  0.21019474     0.09200
H1563       H  0.52277402  0.81830023  0.25741272     0.07200
Br1564     Br  0.54259666  0.81334714  0.19621745    -0.03400
C1565       C  0.26451860  0.02331980  0.99226516    -0.10000
C1566       C  0.27872707  0.99978260  0.48772910     0.06200
C1567       C  0.26430646  0.97797252  0.48718905    -0.03800
C1568       C  0.23969127  0.97833658  0.49763336    -0.08200
C1569       C  0.22647494  0.00278903  0.00909463     0.05300
C1570       C  0.23922176  0.02444025  0.99981591    -0.03300
Br1571     Br  0.22301565  0.05590649  0.99496754    -0.03000
H1572       H  0.27381885  0.04027323  0.98545118     0.09200
H1573       H  0.22904928  0.96131804  0.49704007     0.07200
Br1574     Br  0.27656388  0.94739119  0.47113640    -0.03400
C1575       C  0.41343050  0.08272528  0.44384637    -0.10000
C1576       C  0.42250336  0.06064813  0.45664698     0.06200
C1577       C  0.44835371  0.05591826  0.45543776    -0.03800
C1578       C  0.46433887  0.07334892  0.44229952    -0.08200
C1579       C  0.45539133  0.09571056  0.42993195     0.05300
C1580       C  0.42940979  0.10009841  0.43043084    -0.03300
Br1581     Br  0.41385796  0.12876626  0.41277586    -0.03000
H1582       H  0.39360875  0.08639880  0.44381660     0.09200
H1583       H  0.48409919  0.06939014  0.44222989     0.07200
Br1584     Br  0.46366628  0.02670784  0.47216516    -0.03400
C1585       C  0.39644729  0.92392349  0.41652494    -0.10000
C1586       C  0.40882921  0.93685357  0.43967107     0.06200
C1587       C  0.42919004  0.92525542  0.45391074    -0.03800
C1588       C  0.43729482  0.90221890  0.44402133    -0.08200
C1589       C  0.42708477  0.89092895  0.41828339     0.05300
C1590       C  0.40531283  0.90120530  0.40583538    -0.03300
Br1591     Br  0.38700173  0.88535150  0.37432908    -0.03000
H1592       H  0.37977633  0.93153123  0.40641587     0.09200
H1593       H  0.45363354  0.89438699  0.45474148     0.07200
Br1594     Br  0.44857444  0.94030274  0.48514282    -0.03400
C1595       C  0.39734030  0.95050112  0.06914026    -0.10000
C1596       C  0.38499833  0.94011552  0.04408768     0.06200
C1597       C  0.39299269  0.91673917  0.03421421    -0.03800
C1598       C  0.41436150  0.90589719  0.04686835    -0.08200
C1599       C  0.42831345  0.91774973  0.06958160     0.05300
C1600       C  0.41892887  0.94002160  0.08132785    -0.03300
Br1601     Br  0.43537828  0.95835962  0.11234366    -0.03000
H1602       H  0.39138343  0.96816561  0.07797144     0.09200
H1603       H  0.42024159  0.88809052  0.03841459     0.07200
Br1604     Br  0.37766711  0.89782017  0.49876341    -0.03400
C1605       C  0.26874667  0.98434461  0.26279679    -0.10000
C1606       C  0.27868675  0.00588410  0.24918664     0.06200
C1607       C  0.26305420  0.02691503  0.24629053    -0.03800
C1608       C  0.23809942  0.02544507  0.25529494    -0.08200
C1609       C  0.22791765  0.00335861  0.26680169     0.05300
C1610       C  0.24376651  0.98301219  0.27173642    -0.03300
Br1611     Br  0.23288265  0.95370942  0.29279064    -0.03000
H1612       H  0.28042990  0.96830107  0.26659267     0.09200
H1613       H  0.22632696  0.04156006  0.25237872     0.07200
Br1614     Br  0.27389529  0.05845743  0.23063016    -0.03400
C1615       C  0.44091192  0.05561982  0.18699491    -0.10000
C1616       C  0.42182404  0.06470342  0.20567537     0.06200
C1617       C  0.42079006  0.09041396  0.21127538    -0.03800
C1618       C  0.43847419  0.10620691  0.19823892    -0.08200
C1619       C  0.45757583  0.09706821  0.17983537     0.05300
C1620       C  0.45859884  0.07148571  0.17398582    -0.03300
Br1621     Br  0.48265574  0.05722791  0.14708914    -0.03000
H1622       H  0.44198030  0.03605018  0.18213680     0.09200
H1623       H  0.43766618  0.12578602  0.20320995     0.07200
Br1624     Br  0.39698172  0.10541638  0.23789979    -0.03400
C1625       C  0.39640891  0.92624081  0.17154323    -0.10000
C1626       C  0.40897328  0.94105262  0.19269182     0.06200
C1627       C  0.43213366  0.93282481  0.20367597    -0.03800
C1628       C  0.44212921  0.91067252  0.19334848    -0.08200
C1629       C  0.43064320  0.89684767  0.17036982     0.05300
C1630       C  0.40702719  0.90453190  0.16017470    -0.03300
Br1631     Br  0.38845716  0.88691557  0.13035728    -0.03000
H1632       H  0.37823132  0.93167618  0.16337233     0.09200
H1633       H  0.46022377  0.90535093  0.20189896     0.07200
Br1634     Br  0.45262875  0.95162643  0.23057041    -0.03400
C1635       C  0.37875449  0.03327880  0.34087536    -0.10000
C1636       C  0.35809624  0.03585568  0.32183968     0.06200
C1637       C  0.33386217  0.03327192  0.33446639    -0.03800
C1638       C  0.33100177  0.02586747  0.36460358    -0.08200
C1639       C  0.35177979  0.02185050  0.38276041     0.05300
C1640       C  0.37577616  0.02650958  0.37103867    -0.03300
Br1641     Br  0.40541866  0.02123865  0.39432117    -0.03000
H1642       H  0.39747469  0.03528551  0.33200099     0.09200
H1643       H  0.31248992  0.02371473  0.37407499     0.07200
Br1644     Br  0.30366527  0.03957782  0.31269160    -0.03400
C1645       C  0.32868838  0.02662519  0.11691243    -0.10000
C1646       C  0.34842837  0.01878992  0.13516180     0.06200
C1647       C  0.37244185  0.01716577  0.12254411    -0.03800
C1648       C  0.37629516  0.02216681  0.09198745    -0.08200
C1649       C  0.35662033  0.02953902  0.07316739     0.05300
C1650       C  0.33254997  0.03222779  0.08620388    -0.03300
Br1651     Br  0.30423616  0.04431655  0.06420397    -0.03000
H1652       H  0.31039049  0.02915804  0.12678607     0.09200
H1653       H  0.39491048  0.01994304  0.08291804     0.07200
Br1654     Br  0.40096740  0.00874014  0.14630096    -0.03400
C1655       C  0.39556871  0.92191454  0.27752602    -0.10000
C1656       C  0.38500225  0.94158051  0.29349737     0.06200
C1657       C  0.39386739  0.94621713  0.32278023    -0.03800
C1658       C  0.41507937  0.93411373  0.33364635    -0.08200
C1659       C  0.42708330  0.91576542  0.31671391     0.05300
C1660       C  0.41599215  0.90869534  0.28896739    -0.03300
Br1661     Br  0.42723772  0.88152659  0.26474892    -0.03000
H1662       H  0.38891331  0.91769132  0.25512524     0.09200
H1663       H  0.42182406  0.93877598  0.35586341     0.07200
Br1664     Br  0.37690440  0.96810343  0.34939602    -0.03400
O1665       O  0.38061042  0.02788666  0.77918605    -0.86200
O1666       O  0.37261866  0.97918180  0.77984521    -0.83300
C1667       C  0.36980094  0.95718333  0.77241129     0.97300
O1668       O  0.36030273  0.95263379  0.74673699    -0.83300
O1669       O  0.31731622  0.98256227  0.73685738    -0.85900
C1670       C  0.30412344  0.00151425  0.73202649     1.01800
O1671       O  0.31401278  0.02040960  0.72002005    -0.78700
O1672       O  0.34129867  0.03337034  0.76964698    -0.78900
C1673       C  0.35849405  0.03093427  0.78865589     1.01700
O1674       O  0.40833410  0.02263781  0.72324470    -0.86200
O1675       O  0.40348136  0.97130843  0.72759975    -0.83300
C1676       C  0.39719799  0.96207107  0.70250929     0.97300
O1677       O  0.37800336  0.96982919  0.68950527    -0.83300
O1678       O  0.33677765  0.99638962  0.67697478    -0.85900
C1679       C  0.34747307  0.01549982  0.66580127     1.01700
O1680       O  0.35577342  0.03224209  0.68257070    -0.78700
O1681       O  0.38102670  0.05199702  0.72955526    -0.78900
C1682       C  0.40249917  0.04518815  0.72097231     1.01700
Cr1683     Cr  0.38986004  0.00052914  0.75101221     1.93700
Cr1684     Cr  0.34852716  0.97714476  0.71383688     1.93200
Cr1685     Cr  0.34885804  0.03281518  0.72581988     1.39100
O1686       O  0.36262354  0.00338513  0.72976211    -1.24000
O1687       O  0.38276782  0.02637859  0.52769748    -0.86200
O1688       O  0.37137309  0.97852404  0.52741079    -0.83300
C1689       C  0.37063431  0.95634092  0.52043243     0.97300
O1690       O  0.36055563  0.95195007  0.99943465    -0.83300
O1691       O  0.31815172  0.98232353  0.98971358    -0.85900
C1692       C  0.30482621  0.00113598  0.98535327     1.01800
O1693       O  0.31455557  0.02042946  0.97387167    -0.78700
O1694       O  0.34345345  0.03187093  0.51919695    -0.78900
C1695       C  0.36090971  0.02944345  0.53774157     1.01700
O1696       O  0.40977572  0.02022434  0.97378838    -0.86200
O1697       O  0.40298902  0.96868154  0.97903260    -0.83300
C1698       C  0.39618137  0.95919725  0.95418302     0.97300
O1699       O  0.37755675  0.96801185  0.94096843    -0.83300
O1700       O  0.33665636  0.99557893  0.92855692    -0.85900
C1701       C  0.34654275  0.01519165  0.91727969     1.01700
O1702       O  0.35509667  0.03175542  0.93408990    -0.78700
O1703       O  0.38288299  0.05045957  0.97933286    -0.78900
C1704       C  0.40429201  0.04285921  0.97117142     1.01700
Cr1705     Cr  0.39065144  0.99915227  0.00198498     1.93700
Cr1706     Cr  0.34866850  0.97633393  0.96584846     1.93200
Cr1707     Cr  0.34997173  0.03222174  0.97757062     1.39100
O1708       O  0.36345353  0.00260696  0.98086150    -1.24000
O1709       O  0.52264733  0.84932273  0.65187359    -0.86200
O1710       O  0.50887733  0.82007218  0.60435588    -0.83300
C1711       C  0.48923488  0.81142861  0.61630219     0.97300
O1712       O  0.47043588  0.82496458  0.61988597    -0.83300
O1713       O  0.44093525  0.86802813  0.62638700    -0.85900
C1714       C  0.44646346  0.87729809  0.65173823     1.01800
O1715       O  0.46879466  0.87768026  0.65875773    -0.78700
O1716       O  0.51711415  0.88864775  0.65911103    -0.78900
C1717       C  0.52125438  0.86720576  0.66978920     1.01700
O1718       O  0.54094052  0.88709071  0.60924003    -0.86200
O1719       O  0.52156439  0.85994646  0.56408666    -0.83300
C1720       C  0.50455730  0.85174295  0.54754086     0.97300
O1721       O  0.48513370  0.84159874  0.55885836    -0.83300
O1722       O  0.45835102  0.88325461  0.56829554    -0.85900
C1723       C  0.45089191  0.90292257  0.58013748     1.01700
O1724       O  0.45974074  0.90925874  0.60557118    -0.78700
O1725       O  0.51121314  0.91434952  0.60248132    -0.78900
C1726       C  0.53386179  0.90850783  0.60070065     1.01700
Cr1727     Cr  0.52182174  0.85489567  0.60759314     1.93700
Cr1728     Cr  0.46559554  0.85482309  0.59458787     1.93200
Cr1729     Cr  0.48928093  0.89616099  0.63026659     1.39100
O1730       O  0.49233020  0.86898970  0.60988324    -1.24000
O1731       O  0.51962027  0.84908186  0.90184219    -0.86200
O1732       O  0.50779321  0.81935991  0.85465202    -0.83300
C1733       C  0.48831798  0.81032607  0.86660905     0.97300
O1734       O  0.46913220  0.82348155  0.86880226    -0.83300
O1735       O  0.43849696  0.86580074  0.87505962    -0.85900
C1736       C  0.44348580  0.87491528  0.90076294     1.01800
O1737       O  0.46575710  0.87655023  0.90777384    -0.78700
O1738       O  0.51363266  0.88828061  0.90891094    -0.78900
C1739       C  0.51752399  0.86683234  0.91972441     1.01700
O1740       O  0.53822772  0.88683906  0.85955893    -0.86200
O1741       O  0.52105745  0.85881251  0.81424809    -0.83300
C1742       C  0.50470074  0.85042442  0.79696096     0.97300
O1743       O  0.48461526  0.84074898  0.80746770    -0.83300
O1744       O  0.45646963  0.88137282  0.81719366    -0.85900
C1745       C  0.44804486  0.90064596  0.82882013     1.01700
O1746       O  0.45649722  0.90751576  0.85427643    -0.78700
O1747       O  0.50810768  0.91369445  0.85188722    -0.78900
C1748       C  0.53080186  0.90789221  0.85024138     1.01700
Cr1749     Cr  0.51992566  0.85434625  0.85777673     1.93700
Cr1750     Cr  0.46403687  0.85321315  0.84333544     1.93200
Cr1751     Cr  0.48614171  0.89519560  0.87938868     1.39100
O1752       O  0.49014439  0.86800117  0.85909788    -1.24000
O1753       O  0.49156007  0.13397014  0.60893145    -0.86200
O1754       O  0.53950952  0.14522762  0.60908161    -0.83300
C1755       C  0.56186437  0.14534646  0.61578088     0.97300
O1756       O  0.56755606  0.15515894  0.64078331    -0.83300
O1757       O  0.53661971  0.19795518  0.64686932    -0.85900
C1758       C  0.51747480  0.21113704  0.65034484     1.01800
O1759       O  0.49871289  0.20206594  0.66378124    -0.78700
O1760       O  0.48528351  0.17301110  0.61672752    -0.78900
C1761       C  0.48801794  0.15560583  0.59847398     1.01700
O1762       O  0.49760365  0.10774145  0.66552978    -0.86200
O1763       O  0.54919629  0.11369422  0.66239500    -0.83300
C1764       C  0.55808466  0.12080814  0.68755829     0.97300
O1765       O  0.55034299  0.14049896  0.69886340    -0.83300
O1766       O  0.52295231  0.18138089  0.70863637    -0.85900
C1767       C  0.50387376  0.17078510  0.72035277     1.01700
O1768       O  0.48694755  0.16204620  0.70411195    -0.78700
O1769       O  0.46754531  0.13465114  0.65918177    -0.78900
C1770       C  0.47493037  0.11342336  0.66807377     1.01700
Cr1771     Cr  0.51937436  0.12636692  0.63762877     1.93700
Cr1772     Cr  0.54252630  0.16842653  0.67256192     1.93200
Cr1773     Cr  0.48626194  0.16712403  0.66071646     1.39100
O1774       O  0.51596888  0.15350668  0.65800937    -1.24000
O1775       O  0.49214729  0.13313298  0.85829080    -0.86200
O1776       O  0.54009556  0.14494596  0.86107834    -0.83300
C1777       C  0.56225627  0.14415549  0.86857864     0.97300
O1778       O  0.56755760  0.15315775  0.89415592    -0.83300
O1779       O  0.53752690  0.19657667  0.89990293    -0.85900
C1780       C  0.51854632  0.21007925  0.90262228     1.01800
O1781       O  0.49872091  0.20111203  0.91385687    -0.78700
O1782       O  0.48624457  0.17218201  0.86627655    -0.78900
C1783       C  0.48854742  0.15475939  0.84793469     1.01700
O1784       O  0.49655083  0.10633233  0.91437178    -0.86200
O1785       O  0.54820499  0.11209783  0.91368585    -0.83300
C1786       C  0.55642119  0.11861258  0.93941349     0.97300
O1787       O  0.54796311  0.13783012  0.95121493    -0.83300
O1788       O  0.52147101  0.17980214  0.96032044    -0.85900
C1789       C  0.50168073  0.16994352  0.97112722     1.01700
O1790       O  0.48522104  0.16136192  0.95402053    -0.78700
O1791       O  0.46704321  0.13394244  0.90810534    -0.78900
C1792       C  0.47390453  0.11241176  0.91644312     1.01700
Cr1793     Cr  0.51917052  0.12537742  0.88804441     1.93700
Cr1794     Cr  0.54181240  0.16648168  0.92511254     1.93200
Cr1795     Cr  0.48596491  0.16628169  0.91040668     1.39100
O1796       O  0.51545667  0.15225318  0.90895835    -1.24000
O1797       O  0.66425479  0.98751858  0.99507825    -0.86200
O1798       O  0.69345082  0.99967275  0.54403160    -0.83300
C1799       C  0.70322790  0.01840592  0.53162568     0.97300
O1800       O  0.69024288  0.03761884  0.52767475    -0.83300
O1801       O  0.64753528  0.06839188  0.51928714    -0.85900
C1802       C  0.63715060  0.06383537  0.49406295     1.01800
O1803       O  0.63366799  0.04164052  0.98667988    -0.78700
O1804       O  0.62469148  0.99305694  0.98633308    -0.78900
C1805       C  0.64654924  0.98896264  0.97665650     1.01700
O1806       O  0.62586295  0.96964047  0.53670130    -0.86200
O1807       O  0.65277758  0.98802436  0.58257731    -0.83300
C1808       C  0.66131628  0.00441834  0.59959774     0.97300
O1809       O  0.67170640  0.02388298  0.58867362    -0.83300
O1810       O  0.63122536  0.05225228  0.57756347    -0.85900
C1811       C  0.61164577  0.05990957  0.56529453     1.01700
O1812       O  0.60466130  0.05047046  0.54056348    -0.78700
O1813       O  0.59937144  0.99926888  0.54536450    -0.78900
C1814       C  0.60519657  0.97671628  0.54740045     1.01700
Cr1815     Cr  0.65831784  0.98805771  0.53942142     1.93700
Cr1816     Cr  0.65976991  0.04370496  0.55200055     1.93200
Cr1817     Cr  0.61704912  0.02099431  0.51649693     1.39100
O1818       O  0.64482801  0.01771400  0.53655100    -1.24000
O1819       O  0.66024472  0.98669060  0.74430546    -0.86200
O1820       O  0.69063717  0.99851704  0.79083324    -0.83300
C1821       C  0.69962203  0.01799487  0.77897417     0.97300
O1822       O  0.68627478  0.03700292  0.77667202    -0.83300
O1823       O  0.64400791  0.06714725  0.77078064    -0.85900
C1824       C  0.63424096  0.06331088  0.74505806     1.01800
O1825       O  0.63003056  0.04160497  0.73726869    -0.78700
O1826       O  0.62069866  0.99313759  0.73695757    -0.78900
C1827       C  0.64232289  0.98930827  0.72644728     1.01700
O1828       O  0.62273184  0.96816572  0.78650534    -0.86200
O1829       O  0.65115470  0.98578181  0.83163319    -0.83300
C1830       C  0.66057436  0.00165563  0.84869918     0.97300
O1831       O  0.66999205  0.02157001  0.83779528    -0.83300
O1832       O  0.62833536  0.04915679  0.82886153    -0.85900
C1833       C  0.60888743  0.05756811  0.81700075     1.01700
O1834       O  0.60177928  0.04909489  0.79181487    -0.78700
O1835       O  0.59621319  0.99798993  0.79506999    -0.78900
C1836       C  0.60180865  0.97536951  0.79643756     1.01700
Cr1837     Cr  0.65532235  0.98656235  0.78812154     1.93700
Cr1838     Cr  0.65663699  0.04190533  0.80230912     1.93200
Cr1839     Cr  0.61367487  0.02010251  0.76671324     1.39100
O1840       O  0.64168385  0.01623174  0.78624936    -1.24000
O1841       O  0.12177816  0.02995658  0.97547959    -0.86200
O1842       O  0.13034718  0.98133580  0.97473432    -0.83300
C1843       C  0.13331643  0.95928284  0.98229061     0.97300
O1844       O  0.14850638  0.94882874  0.51027958    -0.83300
O1845       O  0.19008560  0.97968817  0.51782564    -0.85900
C1846       C  0.20273755  0.99916688  0.52031466     1.01800
O1847       O  0.19309795  0.01764192  0.53294099    -0.78700
O1848       O  0.16132038  0.03574084  0.98374173    -0.78900
C1849       C  0.14358026  0.03386879  0.96546014     1.01700
O1850       O  0.09885478  0.01672836  0.53586732    -0.86200
O1851       O  0.10465152  0.96562830  0.53129076    -0.83300
C1852       C  0.11156113  0.95595993  0.55614579     0.97300
O1853       O  0.13154446  0.96298243  0.56805872    -0.83300
O1854       O  0.17160951  0.99251914  0.57919654    -0.85900
C1855       C  0.16135399  0.01199489  0.58975184     1.01700
O1856       O  0.15302689  0.02866052  0.57263691    -0.78700
O1857       O  0.12507206  0.04704384  0.52757047    -0.78900
C1858       C  0.10443843  0.03929872  0.53805520     1.01700
Cr1859     Cr  0.11676951  0.99556365  0.50712177     1.93700
Cr1860     Cr  0.15998500  0.97300646  0.54262322     1.93200
Cr1861     Cr  0.15778937  0.02891803  0.52925612     1.39100
O1862       O  0.14453906  0.99904843  0.52711599    -1.24000
O1863       O  0.12155917  0.02509673  0.72651478    -0.86200
O1864       O  0.13075210  0.97617126  0.72908036    -0.83300
C1865       C  0.13413109  0.95453314  0.73835278     0.97300
O1866       O  0.14422599  0.95114497  0.76406816    -0.83300
O1867       O  0.18710345  0.98134628  0.76890008    -0.85900
C1868       C  0.20045616  0.00044845  0.77042871     1.01800
O1869       O  0.19131293  0.02025897  0.78074061    -0.78700
O1870       O  0.16095404  0.03178292  0.73378156    -0.78900
C1871       C  0.14315741  0.02925627  0.71585569     1.01700
O1872       O  0.09691781  0.02062466  0.78489262    -0.86200
O1873       O  0.10204827  0.96994904  0.78382497    -0.83300
C1874       C  0.10869356  0.96193092  0.80960878     0.97300
O1875       O  0.12851388  0.96980058  0.82104162    -0.83300
O1876       O  0.17029256  0.99754913  0.82904391    -0.85900
C1877       C  0.16063408  0.01752394  0.83890117     1.01700
O1878       O  0.15180741  0.03335391  0.82101384    -0.78700
O1879       O  0.12325093  0.05059793  0.77591637    -0.78900
C1880       C  0.10278529  0.04302925  0.78718279     1.01700
Cr1881     Cr  0.11438521  0.99836161  0.75737055     1.93700
Cr1882     Cr  0.15706219  0.97681836  0.79435205     1.93200
Cr1883     Cr  0.15597411  0.03215965  0.77766305     1.39100
O1884       O  0.14233375  0.00239063  0.77694170    -1.24000
O1885       O  0.98163852  0.84398946  0.61996911    -0.86200
O1886       O  0.99773702  0.81549042  0.66734677    -0.83300
C1887       C  0.01658912  0.80724391  0.65372075     0.97300
O1888       O  0.03490152  0.82135763  0.64880026    -0.83300
O1889       O  0.06307486  0.86594876  0.64011213    -0.85900
C1890       C  0.05663312  0.87600753  0.61517157     1.01800
O1891       O  0.03407984  0.87655029  0.60930259    -0.78700
O1892       O  0.98548606  0.88342429  0.61175757    -0.78900
C1893       C  0.98340269  0.86165902  0.60140731     1.01700
O1894       O  0.96276236  0.88067610  0.66324020    -0.86200
O1895       O  0.98520240  0.85418711  0.70720117    -0.83300
C1896       C  0.00288806  0.84638724  0.72317250     0.97300
O1897       O  0.02234012  0.83706445  0.71098976    -0.83300
O1898       O  0.04663630  0.87934236  0.69918136    -0.85900
C1899       C  0.05359817  0.89927457  0.68740974     1.01700
O1900       O  0.04363962  0.90647873  0.66271186    -0.78700
O1901       O  0.99161362  0.90902014  0.66877855    -0.78900
C1902       C  0.96939675  0.90190107  0.67228386     1.01700
Cr1903     Cr  0.98343304  0.84950068  0.66399461     1.93700
Cr1904     Cr  0.03990422  0.85121658  0.67352608     1.93200
Cr1905     Cr  0.01358287  0.89257452  0.63947232     1.39100
O1906       O  0.01230137  0.86473027  0.65972939    -1.24000
O1907       O  0.98179324  0.84672898  0.86784701    -0.86200
O1908       O  0.99667043  0.81833230  0.91579018    -0.83300
C1909       C  0.01607771  0.81011612  0.90319676     0.97300
O1910       O  0.03456667  0.82431744  0.89963773    -0.83300
O1911       O  0.06241732  0.86926965  0.89175543    -0.85900
C1912       C  0.05662152  0.87923035  0.86659434     1.01800
O1913       O  0.03428425  0.87890234  0.85938646    -0.78700
O1914       O  0.98523311  0.88617609  0.85984992    -0.78900
C1915       C  0.98369359  0.86454390  0.84945718     1.01700
O1916       O  0.96135465  0.88356039  0.91019546    -0.86200
O1917       O  0.98246748  0.85722725  0.95544508    -0.83300
C1918       C  0.99984103  0.84967861  0.97209399     0.97300
O1919       O  0.01976742  0.84069956  0.96072984    -0.83300
O1920       O  0.04414313  0.88365236  0.94923521    -0.85900
C1921       C  0.05111517  0.90336431  0.93671634     1.01700
O1922       O  0.04139426  0.90989521  0.91175459    -0.78700
O1923       O  0.98992367  0.91213565  0.91589351    -0.78900
C1924       C  0.96773378  0.90492633  0.91908253     1.01700
Cr1925     Cr  0.98217624  0.85239076  0.91195683     1.93700
Cr1926     Cr  0.03835052  0.85474674  0.92408160     1.93200
Cr1927     Cr  0.01257965  0.89542875  0.88797420     1.39100
O1928       O  0.01100462  0.86784864  0.90882121    -1.24000
O1929       O  0.01918168  0.12932712  0.65398374    -0.86200
O1930       O  0.97041320  0.13786006  0.65216589    -0.83300
C1931       C  0.94833006  0.13722797  0.64408085     0.97300
O1932       O  0.94324053  0.14741776  0.61881945    -0.83300
O1933       O  0.97276688  0.19204081  0.61279304    -0.85900
C1934       C  0.99169776  0.20575161  0.60948507     1.01800
O1935       O  0.01100070  0.19700565  0.59703071    -0.78700
O1936       O  0.02474330  0.16842535  0.64473871    -0.78900
C1937       C  0.02202128  0.15117102  0.66362651     1.01700
O1938       O  0.01518622  0.10289741  0.59783407    -0.86200
O1939       O  0.96386572  0.10669207  0.59910507    -0.83300
C1940       C  0.95538971  0.11355863  0.57351919     0.97300
O1941       O  0.96287704  0.13344180  0.56189880    -0.83300
O1942       O  0.98826881  0.17577785  0.55163274    -0.85900
C1943       C  0.00783583  0.16592057  0.54034787     1.01700
O1944       O  0.02452705  0.15733756  0.55735402    -0.78700
O1945       O  0.04440092  0.13061431  0.60360943    -0.78900
C1946       C  0.03767780  0.10920923  0.59524186     1.01700
Cr1947     Cr  0.99234722  0.12053545  0.62458107     1.93700
Cr1948     Cr  0.96858103  0.16189053  0.58767616     1.93200
Cr1949     Cr  0.02452406  0.16243916  0.60091011     1.39100
O1950       O  0.99522056  0.14793941  0.60363823    -1.24000
O1951       O  0.01640036  0.12964310  0.90144744    -0.86200
O1952       O  0.96839527  0.13957595  0.90170586    -0.83300
C1953       C  0.94596981  0.13992186  0.89546489     0.97300
O1954       O  0.93985283  0.15005175  0.87056316    -0.83300
O1955       O  0.96964706  0.19370773  0.86361608    -0.85900
C1956       C  0.98858638  0.20723611  0.85992683     1.01800
O1957       O  0.00722234  0.19862352  0.84619987    -0.78700
O1958       O  0.02107386  0.16916804  0.89371394    -0.78900
C1959       C  0.01924261  0.15119362  0.91185309     1.01700
O1960       O  0.01101753  0.10443206  0.84477247    -0.86200
O1961       O  0.95883408  0.10875895  0.84857527    -0.83300
C1962       C  0.94928244  0.11605917  0.82367152     0.97300
O1963       O  0.95623827  0.13622605  0.81223886    -0.83300
O1964       O  0.98307672  0.17767097  0.80147745    -0.85900
C1965       C  0.00264267  0.16797461  0.78996084     1.01700
O1966       O  0.01985716  0.15978876  0.80637048    -0.78700
O1967       O  0.04008907  0.13243516  0.85133718    -0.78900
C1968       C  0.03341402  0.11134480  0.84195811     1.01700
Cr1969     Cr  0.98868300  0.12185918  0.87283340     1.93700
Cr1970     Cr  0.96410954  0.16410306  0.83819040     1.93200
Cr1971     Cr  0.02041160  0.16412492  0.84970157     1.39100
O1972       O  0.99113666  0.14953361  0.85244373    -1.24000
O1973       O  0.84011784  0.98463313  0.77278831    -0.86200
O1974       O  0.81113770  0.99690071  0.72429434    -0.83300
C1975       C  0.80200028  0.01595078  0.73627774     0.97300
O1976       O  0.81537507  0.03502856  0.73889796    -0.83300
O1977       O  0.85886424  0.06504882  0.74454229    -0.85900
C1978       C  0.86898116  0.06095484  0.77009368     1.01800
O1979       O  0.87165673  0.03911810  0.77872778    -0.78700
O1980       O  0.87969274  0.99042906  0.78065639    -0.78900
C1981       C  0.85789384  0.98697115  0.79096885     1.01700
O1982       O  0.87821360  0.96510679  0.73162289    -0.86200
O1983       O  0.85119060  0.98403565  0.68524675    -0.83300
C1984       C  0.84270696  0.00052065  0.66784916     0.97300
O1985       O  0.83249053  0.01996900  0.67840931    -0.83300
O1986       O  0.87425738  0.04722177  0.68720219    -0.85900
C1987       C  0.89441075  0.05419229  0.69864595     1.01700
O1988       O  0.90096750  0.04551303  0.72418917    -0.78700
O1989       O  0.90524556  0.99456114  0.72294528    -0.78900
C1990       C  0.89921050  0.97212992  0.72139472     1.01700
Cr1991     Cr  0.84601168  0.98439465  0.72872685     1.93700
Cr1992     Cr  0.84564759  0.03997287  0.71366212     1.93200
Cr1993     Cr  0.88788503  0.01711885  0.75026981     1.39100
O1994       O  0.86008991  0.01388752  0.73030991    -1.24000
O1995       O  0.84465010  0.98561994  0.52308401    -0.86200
O1996       O  0.81135514  0.99989070  0.97656620    -0.83300
C1997       C  0.80277312  0.01968070  0.98745711     0.97300
O1998       O  0.81609356  0.03879309  0.98899764    -0.83300
O1999       O  0.85976585  0.06759952  0.99586515    -0.85900
C2000       C  0.87305336  0.06185261  0.52113646     1.01800
O2001       O  0.87540675  0.03985567  0.52913212    -0.78700
O2002       O  0.88424909  0.99147940  0.53015380    -0.78900
C2003       C  0.86260891  0.98793263  0.54087033     1.01700
O2004       O  0.87846473  0.96797585  0.98205550    -0.86200
O2005       O  0.85093893  0.98673216  0.93624350    -0.83300
C2006       C  0.84240747  0.00299543  0.91860154     0.97300
O2007       O  0.83318233  0.02300373  0.92897664    -0.83300
O2008       O  0.87563483  0.04884014  0.93871838    -0.85900
C2009       C  0.89509202  0.05667206  0.95089845     1.01700
O2010       O  0.90133254  0.04834317  0.97668705    -0.78700
O2011       O  0.90578812  0.99744773  0.97477387    -0.78900
C2012       C  0.89957177  0.97513101  0.97228507     1.01700
Cr2013     Cr  0.84622682  0.98714086  0.97985132     1.93700
Cr2014     Cr  0.84659012  0.04272877  0.96450599     1.93200
Cr2015     Cr  0.88807778  0.01963880  0.00204269     1.39100
O2016       O  0.86044278  0.01650400  0.98160692    -1.24000
O2017       O  0.49199610  0.38837926  0.65519723    -0.86200
O2018       O  0.54059069  0.37848270  0.65194462    -0.83300
C2019       C  0.56254246  0.37953657  0.64318724     0.97300
O2020       O  0.56727835  0.37035707  0.61740138    -0.83300
O2021       O  0.53767065  0.32641830  0.61033805    -0.85900
C2022       C  0.51870548  0.31289134  0.60735357     1.01800
O2023       O  0.49878073  0.32205441  0.59699516    -0.78700
O2024       O  0.48691292  0.34928658  0.64674200    -0.78900
C2025       C  0.48958132  0.36654346  0.66527344     1.01700
O2026       O  0.49577705  0.41589463  0.59994297    -0.86200
O2027       O  0.54693048  0.41140855  0.60002516    -0.83300
C2028       C  0.55507798  0.40562557  0.57409296     0.97300
O2029       O  0.54659730  0.38684084  0.56135028    -0.83300
O2030       O  0.52068236  0.34496076  0.55127827    -0.85900
C2031       C  0.50055216  0.35465684  0.54132531     1.01700
O2032       O  0.48428987  0.36256117  0.55934455    -0.78700
O2033       O  0.46648312  0.38828463  0.60712773    -0.78900
C2034       C  0.47318590  0.40975802  0.59848633     1.01700
Cr2035     Cr  0.51864281  0.39730286  0.62559533     1.93700
Cr2036     Cr  0.54133581  0.35740360  0.58648167     1.93200
Cr2037     Cr  0.48575566  0.35640301  0.60277001     1.39100
O2038       O  0.51514183  0.37070997  0.60408838    -1.24000
O2039       O  0.48969756  0.38960934  0.90372437    -0.86200
O2040       O  0.53820701  0.38062515  0.90599998    -0.83300
C2041       C  0.56066839  0.37831960  0.89977325     0.97300
O2042       O  0.56639300  0.36876749  0.87454992    -0.83300
O2043       O  0.53655075  0.32593959  0.86628958    -0.85900
C2044       C  0.51763310  0.31263319  0.86191368     1.01800
O2045       O  0.49902453  0.32188388  0.84864228    -0.78700
O2046       O  0.48446916  0.35043353  0.89598659    -0.78900
C2047       C  0.48697654  0.36786294  0.91425517     1.01700
O2048       O  0.49679380  0.41604678  0.84736019    -0.86200
O2049       O  0.54853029  0.41108715  0.85277065    -0.83300
C2050       C  0.55821526  0.40431105  0.82790325     0.97300
O2051       O  0.55088398  0.38464592  0.81601916    -0.83300
O2052       O  0.52443184  0.34335003  0.80478530    -0.85900
C2053       C  0.50545273  0.35366255  0.79281794     1.01700
O2054       O  0.48810911  0.36208521  0.80881584    -0.78700
O2055       O  0.46701397  0.38865021  0.85340990    -0.78900
C2056       C  0.47431454  0.40976642  0.84416277     1.01700
Cr2057     Cr  0.51819463  0.39801523  0.87616891     1.93700
Cr2058     Cr  0.54271116  0.35610566  0.84160235     1.93200
Cr2059     Cr  0.48629148  0.35661772  0.85207382     1.39100
O2060       O  0.51577533  0.37057533  0.85587083    -1.24000
O2061       O  0.67193545  0.52987128  0.76843126    -0.86200
O2062       O  0.70123637  0.51579500  0.72168194    -0.83300
C2063       C  0.70848283  0.49606363  0.73431848     0.97300
O2064       O  0.69426188  0.47757902  0.73638226    -0.83300
O2065       O  0.64906095  0.45063163  0.74257689    -0.85900
C2066       C  0.63918633  0.45584628  0.76795978     1.01800
O2067       O  0.63802650  0.47797960  0.77523618    -0.78700
O2068       O  0.63194364  0.52664891  0.77502925    -0.78900
C2069       C  0.65357447  0.52832485  0.78603113     1.01700
O2070       O  0.63610396  0.55131099  0.72572153    -0.86200
O2071       O  0.66329941  0.53080838  0.68063374    -0.83300
C2072       C  0.67070560  0.51367628  0.66372164     0.97300
O2073       O  0.67930222  0.49365857  0.67523342    -0.83300
O2074       O  0.63591166  0.46944305  0.68400083    -0.85900
C2075       C  0.61546780  0.46301692  0.69537535     1.01700
O2076       O  0.60893015  0.47189746  0.72068503    -0.78700
O2077       O  0.60792281  0.52310909  0.71717474    -0.78900
C2078       C  0.61473193  0.54541058  0.71608911     1.01700
Cr2079     Cr  0.66719859  0.53030489  0.72429937     1.93700
Cr2080     Cr  0.66433776  0.47463340  0.71080214     1.93200
Cr2081     Cr  0.62314134  0.50006117  0.74572067     1.39100
O2082       O  0.65138632  0.50166116  0.72631988    -1.24000
O2083       O  0.66967289  0.52806471  0.51770909    -0.86200
O2084       O  0.69913378  0.51473066  0.96935110    -0.83300
C2085       C  0.70726543  0.49552452  0.98251022     0.97300
O2086       O  0.69337923  0.47707307  0.98621357    -0.83300
O2087       O  0.65020878  0.44987068  0.99670899    -0.85900
C2088       C  0.63893315  0.45410176  0.51939947     1.01800
O2089       O  0.63820424  0.47637217  0.52617768    -0.78700
O2090       O  0.62989931  0.52481703  0.52638262    -0.78900
C2091       C  0.65191933  0.52706792  0.53614403     1.01700
O2092       O  0.63323363  0.54874042  0.97532402    -0.86200
O2093       O  0.65914413  0.52752886  0.93012505    -0.83300
C2094       C  0.66692162  0.51036482  0.91359102     0.97300
O2095       O  0.67584845  0.49057959  0.92522713    -0.83300
O2096       O  0.63308667  0.46623852  0.93893997    -0.85900
C2097       C  0.61405492  0.45884305  0.95282721     1.01700
O2098       O  0.60834198  0.46867010  0.97788273    -0.78700
O2099       O  0.60469336  0.52000168  0.97114549    -0.78900
C2100       C  0.61179012  0.54198862  0.96662566     1.01700
Cr2101     Cr  0.66484379  0.52873934  0.97331198     1.93700
Cr2102     Cr  0.66278891  0.47282314  0.96283531     1.93200
Cr2103     Cr  0.62269991  0.49850117  0.99980200     1.39100
O2104       O  0.64981282  0.50003816  0.97792894    -1.24000
O2105       O  0.38481496  0.49598321  0.97956148    -0.86200
O2106       O  0.37545391  0.54404632  0.98228214    -0.83300
C2107       C  0.37409225  0.56580003  0.99081371     0.97300
O2108       O  0.36369160  0.57022542  0.51320614    -0.83300
O2109       O  0.32132768  0.53868038  0.51956970    -0.85900
C2110       C  0.30848608  0.51939508  0.52335656     1.01800
O2111       O  0.31795021  0.50046880  0.53581349    -0.78700
O2112       O  0.34537568  0.49013081  0.98853932    -0.78900
C2113       C  0.36290086  0.49270439  0.96992746     1.01700
O2114       O  0.41210243  0.50193987  0.53835426    -0.86200
O2115       O  0.40598268  0.55246176  0.53535542    -0.83300
C2116       C  0.39812349  0.56102111  0.56034759     0.97300
O2117       O  0.37806445  0.55347469  0.57150437    -0.83300
O2118       O  0.33802357  0.52473185  0.58103404    -0.85900
C2119       C  0.34932573  0.50607148  0.59254496     1.01700
O2120       O  0.35844831  0.48960831  0.57600837    -0.78700
O2121       O  0.38627214  0.47156815  0.53029999    -0.78900
C2122       C  0.40678977  0.47935843  0.54058491     1.01700
Cr2123     Cr  0.39430614  0.52338769  0.50993705     1.93700
Cr2124     Cr  0.35068880  0.54497985  0.54497908     1.93200
Cr2125     Cr  0.35346067  0.48933031  0.53253822     1.39100
O2126       O  0.36641249  0.51929228  0.52975423    -1.24000
O2127       O  0.38586676  0.49781281  0.73161277    -0.86200
O2128       O  0.37578814  0.54573425  0.73248021    -0.83300
C2129       C  0.37298236  0.56756627  0.74022750     0.97300
O2130       O  0.36193826  0.57173293  0.76517298    -0.83300
O2131       O  0.31933881  0.54011561  0.76903297    -0.85900
C2132       C  0.30640640  0.52075927  0.77205445     1.01800
O2133       O  0.31557293  0.50208901  0.78521589    -0.78700
O2134       O  0.34655258  0.49006103  0.73886663    -0.78900
C2135       C  0.36444300  0.49311149  0.72090769     1.01700
O2136       O  0.40969586  0.50273998  0.79044420    -0.86200
O2137       O  0.40343721  0.55346003  0.78876385    -0.83300
C2138       C  0.39511488  0.56190947  0.81370895     0.97300
O2139       O  0.37462650  0.55445845  0.82384284    -0.83300
O2140       O  0.33393249  0.52592119  0.83118153    -0.85900
C2141       C  0.34455555  0.50694385  0.84282814     1.01700
O2142       O  0.35428687  0.49077589  0.82629242    -0.78700
O2143       O  0.38385536  0.47243644  0.78207651    -0.78900
C2144       C  0.40450257  0.48010873  0.79234923     1.01700
Cr2145     Cr  0.39223525  0.52468336  0.76207806     1.93700
Cr2146     Cr  0.34792783  0.54622160  0.79591966     1.93200
Cr2147     Cr  0.35089192  0.49059007  0.78289737     1.39100
O2148       O  0.36399564  0.52050663  0.78102194    -1.24000
O2149       O  0.52879764  0.67222348  0.61732799    -0.86200
O2150       O  0.51248856  0.70173565  0.66349737    -0.83300
C2151       C  0.49244338  0.70906659  0.65139315     0.97300
O2152       O  0.47440545  0.69447657  0.64826945    -0.83300
O2153       O  0.44760299  0.64929785  0.64229589    -0.85900
C2154       C  0.45414486  0.63926775  0.61755263     1.01800
O2155       O  0.47634979  0.64073914  0.61022218    -0.78700
O2156       O  0.52546020  0.63254054  0.61118534    -0.78900
C2157       C  0.52898194  0.65391925  0.59999464     1.01700
O2158       O  0.54825839  0.63636454  0.66135346    -0.86200
O2159       O  0.52695024  0.66358683  0.70545069    -0.83300
C2160       C  0.50946018  0.67105244  0.72196992     0.97300
O2161       O  0.48945767  0.67968031  0.71027042    -0.83300
O2162       O  0.46598084  0.63639892  0.70103227    -0.85900
C2163       C  0.45854094  0.61670928  0.68954111     1.01700
O2164       O  0.46784226  0.60995564  0.66440456    -0.78700
O2165       O  0.51944166  0.60819655  0.66853845    -0.78900
C2166       C  0.54185275  0.61473470  0.66998027     1.01700
Cr2167     Cr  0.52745254  0.66762023  0.66169069     1.93700
Cr2168     Cr  0.47117870  0.66475560  0.67421858     1.93200
Cr2169     Cr  0.49735094  0.62426006  0.63979172     1.39100
O2170       O  0.49875694  0.65199793  0.65932080    -1.24000
O2171       O  0.52647117  0.67413125  0.86978711    -0.86200
O2172       O  0.51293358  0.69993592  0.92020378    -0.83300
C2173       C  0.49311384  0.70846195  0.90900171     0.97300
O2174       O  0.47454153  0.69433234  0.90598610    -0.83300
O2175       O  0.44682983  0.64869317  0.89880569    -0.85900
C2176       C  0.45215342  0.63961210  0.87307819     1.01800
O2177       O  0.47390408  0.64202765  0.86430557    -0.78700
O2178       O  0.52295296  0.63500201  0.86037293    -0.78900
C2179       C  0.52487428  0.65710616  0.85072483     1.01700
O2180       O  0.54880465  0.63566182  0.90916669    -0.86200
O2181       O  0.52935190  0.65992499  0.95712029    -0.83300
C2182       C  0.51293154  0.66745980  0.97514689     0.97300
O2183       O  0.49233492  0.67631893  0.96539561    -0.83300
O2184       O  0.46875692  0.63347419  0.95477695    -0.85900
C2185       C  0.46068208  0.61443605  0.94243780     1.01700
O2186       O  0.46911177  0.60855792  0.91651225    -0.78700
O2187       O  0.52088639  0.60641279  0.91571514    -0.78900
C2188       C  0.54310961  0.61374080  0.91730492     1.01700
Cr2189     Cr  0.52778087  0.66648660  0.91379108     1.93700
Cr2190     Cr  0.47230648  0.66304024  0.92978929     1.93200
Cr2191     Cr  0.49686528  0.62425579  0.89049563     1.39100
O2192       O  0.49911191  0.65090115  0.91216857    -1.24000
O2193       O  0.01993308  0.38402534  0.60887395    -0.86200
O2194       O  0.97154126  0.37377968  0.61084747    -0.83300
C2195       C  0.94935621  0.37475599  0.61848679     0.97300
O2196       O  0.94362456  0.36501982  0.64381945    -0.83300
O2197       O  0.97242878  0.32047148  0.65097431    -0.85900
C2198       C  0.99143801  0.30687856  0.65350261     1.01800
O2199       O  0.01128929  0.31541057  0.66471214    -0.78700
O2200       O  0.02489005  0.34468329  0.61739479    -0.78900
C2201       C  0.02292622  0.36236168  0.59893185     1.01700
O2202       O  0.01522264  0.41020969  0.66504122    -0.86200
O2203       O  0.96367725  0.40601185  0.66318625    -0.83300
C2204       C  0.95521467  0.39952814  0.68898657     0.97300
O2205       O  0.96242450  0.37960170  0.70074464    -0.83300
O2206       O  0.98780560  0.33707828  0.71101125    -0.85900
C2207       C  0.00756065  0.34660415  0.72186544     1.01700
O2208       O  0.02449829  0.35473043  0.70479697    -0.78700
O2209       O  0.04429811  0.38207598  0.65939408    -0.78900
C2210       C  0.03756953  0.40344023  0.66806008     1.01700
Cr2211     Cr  0.99266971  0.39215471  0.63817975     1.93700
Cr2212     Cr  0.96843700  0.35090675  0.67527537     1.93200
Cr2213     Cr  0.02458317  0.35013064  0.66137199     1.39100
O2214       O  0.99534459  0.36474228  0.65919739    -1.24000
O2215       O  0.01735861  0.38531968  0.85948452    -0.86200
O2216       O  0.96945924  0.37405331  0.86258327    -0.83300
C2217       C  0.94732440  0.37571350  0.86991419     0.97300
O2218       O  0.94130491  0.36664081  0.89547457    -0.83300
O2219       O  0.96974880  0.32226477  0.90114369    -0.85900
C2220       C  0.98844745  0.30831718  0.90333619     1.01800
O2221       O  0.00843699  0.31648472  0.91456758    -0.78700
O2222       O  0.02193752  0.34591301  0.86715660    -0.78900
C2223       C  0.02047006  0.36386117  0.84903795     1.01700
O2224       O  0.01339355  0.41112922  0.91577689    -0.86200
O2225       O  0.96158689  0.40690163  0.91493587    -0.83300
C2226       C  0.95348629  0.40041686  0.94093496     0.97300
O2227       O  0.96083116  0.38046055  0.95250761    -0.83300
O2228       O  0.98612150  0.33768894  0.96157825    -0.85900
C2229       C  0.00648941  0.34646589  0.97179909     1.01700
O2230       O  0.02304518  0.35472072  0.95428478    -0.78700
O2231       O  0.04218028  0.38276147  0.90907355    -0.78900
C2232       C  0.03587648  0.40437597  0.91741125     1.01700
Cr2233     Cr  0.99042712  0.39311280  0.88934886     1.93700
Cr2234     Cr  0.96633690  0.35207543  0.92640186     1.93200
Cr2235     Cr  0.02225259  0.35088255  0.91112584     1.39100
O2236       O  0.99323176  0.36582677  0.91020460    -1.24000
O2237       O  0.84347992  0.52907170  0.99432410    -0.86200
O2238       O  0.81433972  0.51493661  0.54152221    -0.83300
C2239       C  0.80578917  0.49549100  0.52994421     0.97300
O2240       O  0.81973131  0.47689978  0.52711770    -0.83300
O2241       O  0.86389699  0.44862448  0.52087361    -0.85900
C2242       C  0.87398281  0.45364447  0.99831700     1.01800
O2243       O  0.87652887  0.47540958  0.98924855    -0.78700
O2244       O  0.88313685  0.52430484  0.98644779    -0.78900
C2245       C  0.86127339  0.52679546  0.97605662     1.01700
O2246       O  0.88030221  0.54888305  0.53587669    -0.86200
O2247       O  0.85326283  0.52864519  0.58126840    -0.83300
C2248       C  0.84525263  0.51188292  0.59865207     0.97300
O2249       O  0.83589091  0.49207998  0.58796637    -0.83300
O2250       O  0.87835774  0.46667266  0.57850271    -0.85900
C2251       C  0.89846201  0.45976392  0.56688215     1.01700
O2252       O  0.90536404  0.46881304  0.54161505    -0.78700
O2253       O  0.90833451  0.52016586  0.54407800    -0.78900
C2254       C  0.90175023  0.54251820  0.54497741     1.01700
Cr2255     Cr  0.84880435  0.52855324  0.53784964     1.93700
Cr2256     Cr  0.84987239  0.47293142  0.55222157     1.93200
Cr2257     Cr  0.89195983  0.49728709  0.51619115     1.39100
O2258       O  0.86372541  0.49951551  0.53586288    -1.24000
O2259       O  0.84626361  0.53080784  0.74361151    -0.86200
O2260       O  0.81718604  0.51721809  0.79130987    -0.83300
C2261       C  0.80860443  0.49780625  0.77948350     0.97300
O2262       O  0.82253643  0.47931470  0.77596838    -0.83300
O2263       O  0.86610587  0.45028579  0.77053548    -0.85900
C2264       C  0.87599746  0.45455244  0.74483303     1.01800
O2265       O  0.87857810  0.47643783  0.73629062    -0.78700
O2266       O  0.88585529  0.52526272  0.73499886    -0.78900
C2267       C  0.86392526  0.52830286  0.72515808     1.01700
O2268       O  0.88376324  0.55031662  0.78484540    -0.86200
O2269       O  0.85705259  0.53028215  0.83110546    -0.83300
C2270       C  0.84832587  0.51344871  0.84788334     0.97300
O2271       O  0.83809603  0.49437386  0.83659807    -0.83300
O2272       O  0.88042687  0.46909714  0.82779354    -0.85900
C2273       C  0.90032910  0.46160446  0.81632954     1.01700
O2274       O  0.90748363  0.47010465  0.79084566    -0.78700
O2275       O  0.91162669  0.52126506  0.79210050    -0.78900
C2276       C  0.90526858  0.54363972  0.79342784     1.01700
Cr2277     Cr  0.85195183  0.53052382  0.78749232     1.93700
Cr2278     Cr  0.85222883  0.47503217  0.80136218     1.93200
Cr2279     Cr  0.89440996  0.49853022  0.76493551     1.39100
O2280       O  0.86644593  0.50135010  0.78504940    -1.24000
O2281       O  0.12870467  0.49173599  0.77542620    -0.86200
O2282       O  0.13809525  0.54007151  0.77310552    -0.83300
C2283       C  0.13803768  0.56213219  0.76502150     0.97300
O2284       O  0.14677355  0.56711854  0.73884641    -0.83300
O2285       O  0.19084950  0.53854346  0.73189578    -0.85900
C2286       C  0.20482067  0.52002646  0.72913391     1.01800
O2287       O  0.19627390  0.50014331  0.71830376    -0.78700
O2288       O  0.16800156  0.48675122  0.76675621    -0.78900
C2289       C  0.15064602  0.48954379  0.78545348     1.01700
O2290       O  0.10164074  0.49636043  0.71966553    -0.86200
O2291       O  0.10600769  0.54717990  0.72065883    -0.83300
C2292       C  0.11220314  0.55508984  0.69451535     0.97300
O2293       O  0.13141853  0.54684050  0.68223210    -0.83300
O2294       O  0.17431014  0.52233800  0.67183371    -0.85900
C2295       C  0.16530784  0.50218040  0.66157533     1.01700
O2296       O  0.15667137  0.48596092  0.67932152    -0.78700
O2297       O  0.12934939  0.46701416  0.72558066    -0.78900
C2298       C  0.10788490  0.47408575  0.71682399     1.01700
Cr2299     Cr  0.11991778  0.51864822  0.74600247     1.93700
Cr2300     Cr  0.16050899  0.54198711  0.70751050     1.93200
Cr2301     Cr  0.16166741  0.48652598  0.72277071     1.39100
O2302       O  0.14706723  0.51560051  0.72461599    -1.24000
O2303       O  0.12884490  0.48761519  0.52409944    -0.86200
O2304       O  0.13755149  0.53582714  0.52467922    -0.83300
C2305       C  0.13665522  0.55797824  0.51777742     0.97300
O2306       O  0.14701313  0.56583254  0.99476231    -0.83300
O2307       O  0.19136250  0.53707340  0.98761526    -0.85900
C2308       C  0.20524664  0.51856373  0.98369042     1.01800
O2309       O  0.19712357  0.50004219  0.96938002    -0.78700
O2310       O  0.16848209  0.48264835  0.51587243    -0.78900
C2311       C  0.15066801  0.48444513  0.53425766     1.01700
O2312       O  0.10186308  0.49583480  0.96752902    -0.86200
O2313       O  0.10637693  0.54727948  0.97200335    -0.83300
C2314       C  0.11394894  0.55722134  0.94730267     0.97300
O2315       O  0.13389049  0.54997501  0.93584228    -0.83300
O2316       O  0.17624626  0.52538909  0.92518171    -0.85900
C2317       C  0.16617671  0.50681791  0.91237149     1.01700
O2318       O  0.15767188  0.48902839  0.92770971    -0.78700
O2319       O  0.13007672  0.46653233  0.97135082    -0.78900
C2320       C  0.10816506  0.47353484  0.96447737     1.01700
Cr2321     Cr  0.11969582  0.51704784  0.99590162     1.93700
Cr2322     Cr  0.16180385  0.54270300  0.96204336     1.93200
Cr2323     Cr  0.16220201  0.48635966  0.97104609     1.39100
O2324       O  0.14750230  0.51527641  0.97546560    -1.24000
O2325       O  0.98663569  0.66979036  0.64508781    -0.86200
O2326       O  0.00078716  0.69893024  0.59770996    -0.83300
C2327       C  0.02005641  0.70676790  0.61077782     0.97300
O2328       O  0.03864928  0.69284075  0.61377271    -0.83300
O2329       O  0.06718931  0.64921133  0.61860276    -0.85900
C2330       C  0.06220882  0.63884819  0.64376047     1.01800
O2331       O  0.04007260  0.63673300  0.65161158    -0.78700
O2332       O  0.99130045  0.63022176  0.65297862    -0.78900
C2333       C  0.98860524  0.65190181  0.66330471     1.01700
O2334       O  0.96608205  0.63360732  0.60338789    -0.86200
O2335       O  0.98708175  0.66052668  0.55755071    -0.83300
C2336       C  0.00430829  0.66888406  0.54094032     0.97300
O2337       O  0.02377162  0.67836461  0.55251264    -0.83300
O2338       O  0.04972294  0.63598072  0.56083574    -0.85900
C2339       C  0.05624789  0.61560537  0.57204432     1.01700
O2340       O  0.04646893  0.60805034  0.59678581    -0.78700
O2341       O  0.99451398  0.60555539  0.59489029    -0.78900
C2342       C  0.97207865  0.61239139  0.59379685     1.01700
Cr2343     Cr  0.98681982  0.66476808  0.60109805     1.93700
Cr2344     Cr  0.04290530  0.66370768  0.58771131     1.93200
Cr2345     Cr  0.01791948  0.62154942  0.62269476     1.39100
O2346       O  0.01590879  0.64967053  0.60314889    -1.24000
O2347       O  0.98783398  0.67139726  0.89471774    -0.86200
O2348       O  0.00158100  0.70049764  0.84709655    -0.83300
C2349       C  0.02087718  0.70893965  0.85963734     0.97300
O2350       O  0.03975594  0.69530190  0.86251134    -0.83300
O2351       O  0.06858305  0.65142858  0.86985510    -0.85900
C2352       C  0.06334648  0.64139991  0.89530671     1.01800
O2353       O  0.04110740  0.63972087  0.90275326    -0.78700
O2354       O  0.99245946  0.63188235  0.90314295    -0.78900
C2355       C  0.98937596  0.65360242  0.91307969     1.01700
O2356       O  0.96828757  0.63429423  0.85342863    -0.86200
O2357       O  0.98827277  0.66120071  0.80762639    -0.83300
C2358       C  0.00513197  0.66929525  0.79040154     0.97300
O2359       O  0.02504690  0.67870765  0.80123272    -0.83300
O2360       O  0.05144070  0.63683395  0.81183627    -0.85900
C2361       C  0.05826354  0.61678410  0.82371789     1.01700
O2362       O  0.04895397  0.61014909  0.84900854    -0.78700
O2363       O  0.99734496  0.60665131  0.84579307    -0.78900
C2364       C  0.97484225  0.61310856  0.84417393     1.01700
Cr2365     Cr  0.98821964  0.66595607  0.85094558     1.93700
Cr2366     Cr  0.04433412  0.66524373  0.83765574     1.93200
Cr2367     Cr  0.01979633  0.62352510  0.87377241     1.39100
O2368       O  0.01747981  0.65130464  0.85343052    -1.24000
C2369       C  0.98655645  0.64637514  0.99811722    -0.10000
C2370       C  0.00165329  0.66592615  0.50808179     0.06200
C2371       C  0.00784666  0.68472401  0.98550223    -0.03800
C2372       C  0.00308971  0.68030999  0.95498444    -0.08200
C2373       C  0.99065851  0.65870783  0.94569592     0.05300
C2374       C  0.98227794  0.64169854  0.96768371    -0.03300
Br2375     Br  0.96452893  0.61203782  0.95778495    -0.03000
H2376       H  0.98155370  0.63145308  0.51415892     0.09200
H2377       H  0.00997931  0.69345961  0.93831580     0.07200
Br2378     Br  0.03049344  0.71129311  0.49772014    -0.03400
C2379       C  0.99049373  0.64341493  0.74853895    -0.10000
C2380       C  0.00114229  0.66594159  0.75766751     0.06200
C2381       C  0.00606628  0.68428780  0.73577534    -0.03800
C2382       C  0.00059801  0.67971807  0.70538742    -0.08200
C2383       C  0.99056346  0.65683779  0.69613399     0.05300
C2384       C  0.98535244  0.63866299  0.71827928    -0.03300
Br2385     Br  0.97079802  0.60715689  0.70910588    -0.03000
H2386       H  0.98635222  0.62914149  0.76516515     0.09200
H2387       H  0.00494520  0.69393477  0.68878952     0.07200
Br2388     Br  0.01927815  0.71601930  0.74625412    -0.03400
C2389       C  0.09901862  0.61229872  0.89512758    -0.10000
C2390       C  0.08080582  0.62475704  0.91179632     0.06200
C2391       C  0.07461531  0.61534568  0.94087858    -0.03800
C2392       C  0.08487723  0.59305474  0.95137075    -0.08200
C2393       C  0.10192123  0.57968829  0.93389043     0.05300
C2394       C  0.10960954  0.59016177  0.90571367    -0.03300
Br2395     Br  0.13376324  0.57536036  0.87924076    -0.03000
H2396       H  0.10384654  0.61882600  0.87267255     0.09200
H2397       H  0.07958752  0.58629412  0.97357143     0.07200
Br2398     Br  0.05164986  0.63166688  0.96735757    -0.03400
C2399       C  0.11689641  0.59914359  0.53044009    -0.10000
C2400       C  0.11693109  0.57324576  0.53293448     0.06200
C2401       C  0.09631227  0.56176587  0.54816002    -0.03800
C2402       C  0.07702745  0.57593342  0.56020552    -0.08200
C2403       C  0.07693569  0.60159702  0.55759188     0.05300
C2404       C  0.09742737  0.61332190  0.54289697    -0.03300
Br2405     Br  0.10111858  0.64865022  0.54109818    -0.03000
H2406       H  0.13216898  0.60843839  0.51902283     0.09200
H2407       H  0.06165793  0.56667550  0.57152713     0.07200
Br2408     Br  0.09115048  0.52670881  0.55279914    -0.03400
C2409       C  0.08479925  0.59165671  0.69937858    -0.10000
C2410       C  0.09994155  0.57704077  0.68086040     0.06200
C2411       C  0.10593882  0.58594955  0.65147076    -0.03800
C2412       C  0.09624647  0.60852936  0.64127502    -0.08200
C2413       C  0.08000911  0.62237940  0.65928645     0.05300
C2414       C  0.07507108  0.61409486  0.68905212    -0.03300
Br2415     Br  0.05433264  0.63216140  0.71650158    -0.03000
H2416       H  0.08064189  0.58580957  0.72228698     0.09200
H2417       H  0.09976150  0.61416612  0.61813079     0.07200
Br2418     Br  0.12569217  0.56786963  0.62282364    -0.03400
C2419       C  0.13540688  0.49748838  0.83734922    -0.10000
C2420       C  0.15577200  0.49315143  0.81817065     0.06200
C2421       C  0.18014525  0.49529577  0.83035130    -0.03800
C2422       C  0.18343828  0.50158717  0.86071427    -0.08200
C2423       C  0.16293872  0.50544437  0.87954229     0.05300
C2424       C  0.13877341  0.50331099  0.86759829    -0.03300
Br2425     Br  0.10940865  0.50784457  0.89171774    -0.03000
H2426       H  0.11656499  0.49640972  0.82886194     0.09200
H2427       H  0.20205135  0.50242333  0.86997386     0.07200
Br2428     Br  0.21001972  0.48930368  0.80793627    -0.03400
C2429       C  0.17779724  0.49760522  0.57681636    -0.10000
C2430       C  0.15566777  0.48607397  0.56710539     0.06200
C2431       C  0.13773178  0.47925261  0.58886701    -0.03800
C2432       C  0.14157558  0.48486312  0.61916221    -0.08200
C2433       C  0.16316441  0.49720937  0.62882191     0.05300
C2434       C  0.18164660  0.50321336  0.60735111    -0.03300
Br2435     Br  0.21270815  0.51797328  0.61855916    -0.03000
H2436       H  0.19188250  0.50300117  0.56046291     0.09200
H2437       H  0.12729190  0.47968238  0.63537484     0.07200
Br2438     Br  0.10798139  0.46141614  0.57898317    -0.03400
C2439       C  0.10742553  0.56786470  0.80652870    -0.10000
C2440       C  0.12120763  0.57887119  0.78262272     0.06200
C2441       C  0.11450967  0.60299100  0.77341327    -0.03800
C2442       C  0.09388151  0.61470924  0.78682468    -0.08200
C2443       C  0.07929634  0.60292566  0.80946626     0.05300
C2444       C  0.08663145  0.57920440  0.81939450    -0.03300
Br2445     Br  0.06846923  0.56007472  0.84896766    -0.03000
H2446       H  0.11191072  0.54939620  0.81450961     0.09200
H2447       H  0.08927142  0.63328369  0.77936207     0.07200
Br2448     Br  0.13266214  0.62097429  0.74296800    -0.03400
C2449       C  0.91442057  0.57955846  0.82588925    -0.10000
C2450       C  0.92292823  0.56200854  0.80516288     0.06200
C2451       C  0.94836577  0.56151017  0.79735591    -0.03800
C2452       C  0.96476535  0.57832129  0.81037016    -0.08200
C2453       C  0.95641656  0.59578439  0.83140519     0.05300
C2454       C  0.93089088  0.59621114  0.83928082    -0.03300
Br2455     Br  0.91749830  0.61756204  0.86968575    -0.03000
H2456       H  0.89498231  0.57973708  0.83250847     0.09200
H2457       H  0.98418745  0.57786717  0.80370259     0.07200
Br2458     Br  0.96163258  0.53913105  0.76798847    -0.03400
C2459       C  0.96109557  0.57796823  0.55992044    -0.10000
C2460       C  0.95315029  0.59541899  0.58117832     0.06200
C2461       C  0.92765828  0.59599847  0.58941627    -0.03800
C2462       C  0.91103945  0.57899903  0.57679940    -0.08200
C2463       C  0.91930817  0.56125587  0.55615035     0.05300
C2464       C  0.94451422  0.56110955  0.54737500    -0.03300
Br2465     Br  0.95711689  0.53925785  0.51702511    -0.03000
H2466       H  0.98038175  0.57756831  0.55266411     0.09200
H2467       H  0.89168632  0.57916562  0.58382067     0.07200
Br2468     Br  0.91443436  0.61828249  0.61891232    -0.03400
C2469       C  0.87767687  0.52327382  0.92390337    -0.10000
C2470       C  0.85684073  0.52518413  0.94298872     0.06200
C2471       C  0.83276484  0.52259373  0.93011795    -0.03800
C2472       C  0.83023387  0.51796164  0.89922792    -0.08200
C2473       C  0.85116139  0.51615821  0.88061449     0.05300
C2474       C  0.87503032  0.51884611  0.89316827    -0.03300
Br2475     Br  0.90488516  0.51526265  0.86968059    -0.03000
H2476       H  0.89631286  0.52470161  0.93294232     0.09200
H2477       H  0.81182378  0.51621692  0.88957878     0.07200
Br2478     Br  0.80226780  0.52486135  0.95248037    -0.03400
C2479       C  0.83643718  0.51376581  0.68402836    -0.10000
C2480       C  0.85847384  0.52599612  0.69265692     0.06200
C2481       C  0.87567704  0.53315546  0.67024201    -0.03800
C2482       C  0.87061519  0.52823971  0.64007488    -0.08200
C2483       C  0.84879631  0.51577343  0.63134861     0.05300
C2484       C  0.83163880  0.50833197  0.65372199    -0.03300
Br2485     Br  0.80140688  0.49120605  0.64434349    -0.03000
H2486       H  0.82322766  0.50762050  0.70106402     0.09200
H2487       H  0.88415751  0.53399175  0.62321832     0.07200
Br2488     Br  0.90612053  0.55022829  0.67907675    -0.03400
C2489       C  0.04756010  0.43915411  0.95080531    -0.10000
C2490       C  0.05480012  0.42189160  0.92895794     0.06200
C2491       C  0.07984907  0.42175455  0.91905041    -0.03800
C2492       C  0.09705425  0.43825485  0.93147945    -0.08200
C2493       C  0.08972920  0.45551642  0.95321465     0.05300
C2494       C  0.06465018  0.45588316  0.96284279    -0.03300
Br2495     Br  0.05281125  0.47792253  0.99346791    -0.03000
H2496       H  0.02850707  0.43945484  0.95891162     0.09200
H2497       H  0.11610949  0.43815657  0.92337213     0.07200
Br2498     Br  0.09135388  0.40107051  0.88691165    -0.03400
C2499       C  0.91514711  0.42659678  0.93834127    -0.10000
C2500       C  0.93266847  0.41379463  0.95603370     0.06200
C2501       C  0.92782891  0.41100395  0.98730869    -0.03800
C2502       C  0.90544195  0.41958935  0.49695116    -0.08200
C2503       C  0.88935415  0.43490902  0.98264366     0.05300
C2504       C  0.89365444  0.43686685  0.95124541    -0.03300
Br2505     Br  0.87072617  0.45375431  0.92507484    -0.03000
H2506       H  0.91801234  0.42845945  0.91425885     0.09200
H2507       H  0.90230712  0.41788012  0.52100418     0.07200
Br2508     Br  0.94820567  0.39114115  0.51198180    -0.03400
C2509       C  0.94698378  0.41164362  0.83506481    -0.10000
C2510       C  0.93307594  0.39555611  0.85414871     0.06200
C2511       C  0.90832503  0.40190483  0.86093162    -0.03800
C2512       C  0.89834328  0.42391548  0.84908763    -0.08200
C2513       C  0.91265466  0.44007663  0.83062711     0.05300
C2514       C  0.93729264  0.43369343  0.82385485    -0.03300
Br2515     Br  0.95943014  0.45476893  0.80104380    -0.03000
H2516       H  0.96625681  0.40778811  0.82959603     0.09200
H2517       H  0.87908096  0.42820836  0.85410326     0.07200
Br2518     Br  0.88732065  0.38152959  0.88594448    -0.03400
C2519       C  0.05264071  0.44644498  0.67500828    -0.10000
C2520       C  0.05595524  0.42105641  0.68050640     0.06200
C2521       C  0.07624121  0.41331701  0.69842174    -0.03800
C2522       C  0.09295418  0.43080382  0.70972919    -0.08200
C2523       C  0.08976471  0.45623106  0.70408716     0.05300
C2524       C  0.06916664  0.46397989  0.68642091    -0.03300
Br2525     Br  0.06246630  0.49793897  0.67566121    -0.03000
H2526       H  0.03715304  0.45274974  0.66137051     0.09200
H2527       H  0.10827114  0.42444339  0.72359445     0.07200
Br2528     Br  0.08116718  0.37945853  0.71038035    -0.03400
C2529       C  0.91837612  0.42763953  0.68571862    -0.10000
C2530       C  0.93431473  0.41310942  0.70364756     0.06200
C2531       C  0.92788424  0.40928877  0.73439727    -0.03800
C2532       C  0.90652927  0.42038435  0.74650560    -0.08200
C2533       C  0.89132969  0.43588789  0.72892808     0.05300
C2534       C  0.89708132  0.43878034  0.69794084    -0.03300
Br2535     Br  0.87655707  0.45804247  0.67126603    -0.03000
H2536       H  0.92233510  0.43023435  0.66193607     0.09200
H2537       H  0.90293345  0.41838403  0.77045555     0.07200
Br2538     Br  0.94833099  0.39074560  0.76200628    -0.03400
C2539       C  0.01880262  0.37349564  0.76408180    -0.10000
C2540       C  0.01091738  0.35007876  0.75446114     0.06200
C2541       C  0.00779149  0.33097063  0.77576167    -0.03800
C2542       C  0.01221435  0.33562762  0.80628290    -0.08200
C2543       C  0.01950226  0.35930654  0.81615964     0.05300
C2544       C  0.02292843  0.37834469  0.79450862    -0.03300
Br2545     Br  0.03358460  0.41123369  0.80441468    -0.03000
H2546       H  0.02152651  0.38830593  0.74771180     0.09200
H2547       H  0.00928369  0.32072669  0.82244374     0.07200
Br2548     Br  0.99865668  0.29812328  0.76413232    -0.03400
C2549       C  0.00779259  0.33594513  0.55728230    -0.10000
C2550       C  0.02077205  0.35730789  0.56633188     0.06200
C2551       C  0.02881376  0.37434364  0.54419445    -0.03800
C2552       C  0.02369556  0.36994665  0.51389817    -0.08200
C2553       C  0.01038847  0.34883359  0.50476474     0.05300
C2554       C  0.00240294  0.33168716  0.52683596    -0.03300
Br2555     Br  0.98501084  0.30191053  0.51676305    -0.03000
H2556       H  0.00115871  0.32278748  0.57408125     0.09200
H2557       H  0.03004648  0.38339991  0.49727215     0.07200
Br2558     Br  0.04760780  0.40348109  0.55365945    -0.03400
C2559       C  0.89829238  0.42158187  0.59922084    -0.10000
C2560       C  0.91172157  0.43844658  0.58074277     0.06200
C2561       C  0.93654436  0.43295503  0.57348228    -0.03800
C2562       C  0.94724642  0.41117716  0.58429338    -0.08200
C2563       C  0.93419790  0.39436191  0.60328622     0.05300
C2564       C  0.90928394  0.39982732  0.61060458    -0.03300
Br2565     Br  0.88935903  0.37858642  0.63583140    -0.03000
H2566       H  0.87895334  0.42513947  0.60463854     0.09200
H2567       H  0.96659094  0.40806585  0.57850538     0.07200
Br2568     Br  0.95761988  0.45486097  0.55032902    -0.03400
C2569       C  0.51255233  0.68873854  0.77403295    -0.10000
C2570       C  0.51281192  0.66822202  0.75498557     0.06200
C2571       C  0.51902727  0.64485411  0.76729453    -0.03800
C2572       C  0.52417949  0.64218515  0.79795749    -0.08200
C2573       C  0.52332093  0.66239730  0.81755700     0.05300
C2574       C  0.51794639  0.68612811  0.80498500    -0.03300
Br2575     Br  0.51752553  0.71589011  0.82809855    -0.03000
H2576       H  0.50861113  0.70691805  0.76471537     0.09200
H2577       H  0.52839730  0.62385547  0.80658396     0.07200
Br2578     Br  0.51956176  0.61529396  0.74370694    -0.03400
C2579       C  0.52446924  0.63698951  0.54842058    -0.10000
C2580       C  0.53007835  0.65731993  0.56668614     0.06200
C2581       C  0.53285414  0.68082409  0.55270291    -0.03800
C2582       C  0.52546632  0.68429210  0.52262520    -0.08200
C2583       C  0.51732987  0.66423142  0.50550371     0.05300
C2584       C  0.51892941  0.64019236  0.51794614    -0.03300
Br2585     Br  0.51463401  0.61097308  0.49414149    -0.03000
H2586       H  0.52401953  0.61846054  0.55787128     0.09200
H2587       H  0.52707698  0.70245360  0.51222111     0.07200
Br2588     Br  0.54896878  0.70802262  0.57224597    -0.03400
C2589       C  0.26858584  0.54271772  0.75405973    -0.10000
C2590       C  0.28042854  0.52020585  0.76104012     0.06200
C2591       C  0.26717194  0.49785427  0.75692598    -0.03800
C2592       C  0.24321652  0.49851522  0.74504235    -0.08200
C2593       C  0.23110025  0.52099504  0.73891437     0.05300
C2594       C  0.24408905  0.54337567  0.74360861    -0.03300
Br2595     Br  0.23015558  0.57555291  0.73579052    -0.03000
H2596       H  0.27829060  0.56007254  0.75719246     0.09200
H2597       H  0.23355685  0.48113453  0.74187634     0.07200
Br2598     Br  0.27981592  0.46548177  0.76701151    -0.03400
C2599       C  0.43442896  0.58263418  0.82708428    -0.10000
C2600       C  0.40869842  0.58171912  0.83007935     0.06200
C2601       C  0.39673485  0.60028017  0.84752512    -0.03800
C2602       C  0.41081578  0.61913568  0.86124460    -0.08200
C2603       C  0.43677922  0.62022798  0.85773358     0.21300
C2604       C  0.44845905  0.60104213  0.84074815    -0.03300
Br2605     Br  0.48372802  0.59636114  0.83604094    -0.03000
H2606       H  0.44391992  0.56848666  0.81422883     0.09200
H2607       H  0.40139766  0.63309946  0.87442783     0.07200
Br2608     Br  0.36120555  0.60204395  0.85213983    -0.03400
C2609       C  0.41957662  0.59190570  0.68384486    -0.10000
C2610       C  0.43600177  0.60457937  0.70287076     0.06200
C2611       C  0.42834638  0.60881122  0.73306639    -0.03800
C2612       C  0.40538094  0.59981615  0.74362616    -0.08200
C2613       C  0.38977556  0.58575631  0.72518139     0.05300
C2614       C  0.39677650  0.58263016  0.69464582    -0.03300
Br2615     Br  0.37598994  0.56521180  0.66685437    -0.03000
H2616       H  0.42433825  0.58933175  0.66031724     0.09200
H2617       H  0.40078026  0.60201500  0.76725283     0.07200
Br2618     Br  0.44903206  0.62492732  0.76219147    -0.03400
C2619       C  0.24138471  0.53715908  0.50836408    -0.10000
C2620       C  0.23123745  0.51904591  0.99485723     0.06200
C2621       C  0.24336525  0.49756439  0.00554989    -0.03800
C2622       C  0.26795640  0.49891172  0.01559257    -0.08200
C2623       C  0.28238976  0.51873973  0.51333157     0.05300
C2624       C  0.26591376  0.53845815  0.51862969    -0.03300
Br2625     Br  0.27541527  0.56692940  0.54143370    -0.03000
H2626       H  0.22903965  0.55250157  0.51304134     0.09200
H2627       H  0.27676798  0.48204024  0.02348544     0.07200
Br2628     Br  0.22709704  0.46601511  0.00898308    -0.03400
C2629       C  0.41317692  0.62073023  0.60198054    -0.10000
C2630       C  0.43922649  0.61966293  0.60261046     0.06200
C2631       C  0.45115313  0.59833562  0.59036231    -0.03800
C2632       C  0.43733258  0.57988952  0.57662455    -0.08200
C2633       C  0.41157065  0.58110654  0.57563556     0.05300
C2634       C  0.39929472  0.60167776  0.58868181    -0.03300
Br2635     Br  0.36378458  0.60556169  0.58761177    -0.03000
H2636       H  0.40361859  0.63642804  0.61164978     0.09200
H2637       H  0.44682026  0.56397770  0.56729847     0.07200
Br2638     Br  0.48599719  0.59070050  0.59334853    -0.03400
C2639       C  0.33500825  0.50579186  0.92810485    -0.10000
C2640       C  0.35740450  0.49443220  0.93739178     0.06200
C2641       C  0.37488956  0.48742075  0.91544084    -0.03800
C2642       C  0.36994138  0.49192445  0.88511629    -0.08200
C2643       C  0.34777901  0.50350389  0.87567413     0.05300
C2644       C  0.33016543  0.51055810  0.89751938    -0.03300
Br2645     Br  0.29919508  0.52599579  0.88702544    -0.03000
H2646       H  0.32149966  0.51166694  0.94477618     0.09200
H2647       H  0.38384748  0.48647011  0.86869264     0.07200
Br2648     Br  0.40557873  0.47096615  0.92504401    -0.03400
C2649       C  0.33253171  0.49792750  0.64393716    -0.10000
C2650       C  0.35284909  0.50314856  0.62528526     0.06200
C2651       C  0.37702359  0.50246376  0.63757516    -0.03800
C2652       C  0.38041333  0.49795776  0.66837150    -0.08200
C2653       C  0.36007310  0.49347075  0.68764550     0.05300
C2654       C  0.33587051  0.49269160  0.67467246    -0.03300
Br2655     Br  0.30620700  0.48416270  0.69641676    -0.03000
H2656       H  0.31400902  0.49728542  0.63436946     0.09200
H2657       H  0.39912939  0.49860509  0.67733038     0.07200
Br2658     Br  0.40620450  0.50866350  0.61361569    -0.03400
C2659       C  0.40529780  0.59930303  0.99394898    -0.10000
C2660       C  0.39137405  0.58344839  0.97572157     0.06200
C2661       C  0.40020280  0.57867353  0.94619725    -0.03800
C2662       C  0.42326205  0.58788585  0.93657301    -0.08200
C2663       C  0.43804225  0.60243195  0.95548307     0.05300
C2664       C  0.42843040  0.60856342  0.98442327    -0.03300
Br2665     Br  0.44596095  0.62834865  0.01330799    -0.03000
H2666       H  0.40185111  0.60056095  0.51475599     0.09200
H2667       H  0.42946641  0.58382077  0.91388302     0.07200
Br2668     Br  0.38198995  0.55888222  0.91806089    -0.03400
C2669       C  0.73840892  0.51285021  0.51397166    -0.10000
C2670       C  0.73270723  0.49531902  0.99451191     0.06200
C2671       C  0.74699072  0.47353142  0.99711540    -0.03800
C2672       C  0.77071849  0.47457584  0.00978025    -0.08200
C2673       C  0.77957727  0.49466624  0.51957977     0.05300
C2674       C  0.76218328  0.51356712  0.52640160    -0.03300
Br2675     Br  0.76870675  0.54082821  0.55280971    -0.03000
H2676       H  0.72530724  0.52744129  0.51926988     0.09200
H2677       H  0.78154394  0.45770245  0.01118434     0.07200
Br2678     Br  0.73594925  0.44210448  0.98229398    -0.03400
C2679       C  0.59759105  0.58538528  0.95948425    -0.10000
C2680       C  0.59488141  0.56024847  0.95239401     0.06200
C2681       C  0.57632570  0.55331086  0.93162045    -0.03800
C2682       C  0.56004345  0.57117368  0.92007918    -0.08200
C2683       C  0.56227608  0.59617764  0.92795029     0.05300
C2684       C  0.58167211  0.60332422  0.94734732    -0.03300
Br2685     Br  0.58657284  0.63688279  0.95978286    -0.03000
H2686       H  0.61189559  0.59112337  0.97508194     0.09200
H2687       H  0.54559579  0.56549599  0.90462576     0.07200
Br2688     Br  0.57307776  0.52025031  0.91647437    -0.03400
C2689       C  0.73969805  0.51153749  0.76990834    -0.10000
C2690       C  0.73361047  0.49514344  0.74683028     0.06200
C2691       C  0.75182133  0.47917784  0.73532957    -0.03800
C2692       C  0.77599197  0.48003741  0.74673445    -0.08200
C2693       C  0.78239362  0.49671140  0.76962370     0.05300
C2694       C  0.76376043  0.51233173  0.78162258    -0.03300
Br2695     Br  0.76927522  0.53453911  0.81455426    -0.03000
H2696       H  0.72559657  0.52379020  0.77890780     0.09200
H2697       H  0.79000511  0.46807693  0.73699759     0.07200
Br2698     Br  0.74497959  0.45734747  0.70254472    -0.03400
C2699       C  0.57329425  0.55558122  0.69595126    -0.10000
C2700       C  0.59692192  0.56410053  0.70446333     0.06200
C2701       C  0.60233596  0.58962458  0.70126894    -0.03800
C2702       C  0.58420810  0.60568542  0.68971446    -0.08200
C2703       C  0.56058969  0.59697869  0.68132250     0.05300
C2704       C  0.55528420  0.57145646  0.68455548    -0.03300
Br2705     Br  0.52437455  0.55597473  0.67343453    -0.03000
H2706       H  0.56854100  0.53615297  0.69803170     0.09200
H2707       H  0.58858518  0.62519962  0.68759684     0.07200
Br2708     Br  0.63364534  0.60420828  0.71203379    -0.03400
C2709       C  0.67814538  0.51110950  0.82863631    -0.10000
C2710       C  0.65759481  0.52521971  0.81877998     0.06200
C2711       C  0.64016402  0.53344109  0.84017966    -0.03800
C2712       C  0.64379651  0.52807371  0.87065036    -0.08200
C2713       C  0.66432890  0.51406934  0.88065362     0.05300
C2714       C  0.68144869  0.50518201  0.85921934    -0.03300
Br2715     Br  0.70973745  0.48542548  0.87017543    -0.03000
H2716       H  0.69131492  0.50394762  0.81234439     0.09200
H2717       H  0.63020121  0.53481153  0.88672776     0.07200
Br2718     Br  0.61132540  0.55256005  0.82952773    -0.03400
C2719       C  0.67351967  0.50586086  0.57808436    -0.10000
C2720       C  0.65744462  0.52488881  0.56854864     0.06200
C2721       C  0.64677644  0.54048802  0.59001847    -0.03800
C2722       C  0.65220683  0.53688771  0.62054971    -0.08200
C2723       C  0.66787046  0.51743165  0.63055055     0.05300
C2724       C  0.67856552  0.50176620  0.60870637    -0.03300
Br2725     Br  0.70003517  0.47448432  0.61856942    -0.03000
H2726       H  0.68174248  0.49364721  0.56155183     0.09200
H2727       H  0.64351053  0.54918581  0.63659569     0.07200
Br2728     Br  0.62532741  0.56733637  0.57863127    -0.03400
C2729       C  0.45941263  0.45280217  0.83594466    -0.10000
C2730       C  0.45640235  0.42744937  0.83063065     0.06200
C2731       C  0.43671772  0.41967684  0.81197665    -0.03800
C2732       C  0.42008119  0.43707365  0.80002877    -0.08200
C2733       C  0.42278552  0.46248067  0.80566227     0.05300
C2734       C  0.44297453  0.47028988  0.82379651    -0.03300
Br2735     Br  0.44929839  0.50424293  0.83401465    -0.03000
H2736       H  0.47455127  0.45908978  0.85002133     0.09200
H2737       H  0.40518469  0.43064419  0.78569326     0.07200
Br2738     Br  0.43264971  0.38593629  0.79975135    -0.03400
C2739       C  0.59087375  0.40706430  0.78758710    -0.10000
C2740       C  0.58009144  0.41723781  0.81386173     0.06200
C2741       C  0.59214463  0.43761657  0.82711964    -0.03800
C2742       C  0.61358020  0.44756845  0.81363636    -0.08200
C2743       C  0.62326030  0.43855982  0.78613402     0.05300
C2744       C  0.61210626  0.41734926  0.77383316    -0.03300
Br2745     Br  0.62423257  0.40172754  0.73799448    -0.03000
H2746       H  0.58264324  0.39094931  0.77726296     0.09200
H2747       H  0.62177295  0.46377403  0.82385650     0.07200
Br2748     Br  0.58005187  0.45405241  0.86252645    -0.03400
C2749       C  0.56778308  0.40602351  0.94301291    -0.10000
C2750       C  0.57818620  0.39313517  0.91837033     0.06200
C2751       C  0.60192035  0.40041428  0.90799071    -0.03800
C2752       C  0.61309823  0.42170140  0.91970205    -0.08200
C2753       C  0.60111299  0.43633061  0.94168646     0.05300
C2754       C  0.57849387  0.42767054  0.95402824    -0.03300
Br2755     Br  0.55978072  0.44540526  0.98384463    -0.03000
H2756       H  0.54982920  0.40060042  0.95214352     0.09200
H2757       H  0.63117958  0.42707885  0.91094544     0.07200
Br2758     Br  0.61972532  0.38289847  0.87725724    -0.03400
C2759       C  0.41468537  0.43909022  0.56580161    -0.10000
C2760       C  0.42401931  0.46201118  0.55570071     0.06200
C2761       C  0.44910250  0.46804713  0.56161007    -0.03800
C2762       C  0.46412631  0.45111964  0.57683760    -0.08200
C2763       C  0.45504956  0.42784827  0.58623657     0.05300
C2764       C  0.42976909  0.42206984  0.58095714    -0.03300
Br2765     Br  0.41421721  0.39144142  0.59287976    -0.03000
H2766       H  0.39536533  0.43430440  0.56202027     0.09200
H2767       H  0.48341455  0.45607651  0.58048752     0.07200
Br2768     Br  0.46493875  0.49830711  0.54860391    -0.03400
C2769       C  0.59135821  0.40504030  0.53883436    -0.10000
C2770       C  0.57758621  0.41764252  0.56116631     0.06200
C2771       C  0.58756637  0.43950816  0.57311166    -0.03800
C2772       C  0.61031403  0.44838019  0.56242713    -0.08200
C2773       C  0.62267520  0.43744112  0.53771259     0.05300
C2774       C  0.61353478  0.41477413  0.52690508    -0.03300
Br2775     Br  0.62980760  0.39646617  0.49561220    -0.03000
H2776       H  0.58472705  0.38758286  0.53017053     0.09200
H2777       H  0.62113617  0.46608885  0.07618846     0.07200
Br2778     Br  0.57544670  0.45864035  0.10840487    -0.03400
C2779       C  0.61334931  0.42762306  0.65918006    -0.10000
C2780       C  0.60137704  0.44238516  0.68109830     0.06200
C2781       C  0.57762470  0.43503917  0.69126316    -0.03800
C2782       C  0.56694850  0.41329579  0.68050800    -0.08200
C2783       C  0.57851609  0.39863342  0.65813933     0.05300
C2784       C  0.60217118  0.40616670  0.64756857    -0.03300
Br2785     Br  0.62037345  0.38808806  0.61771929    -0.03000
H2786       H  0.63178357  0.43255763  0.65117207     0.09200
H2787       H  0.54856798  0.40862255  0.68893367     0.07200
Br2788     Br  0.55770247  0.45434692  0.71842376    -0.03400
C2789       C  0.49935930  0.33529802  0.98975317    -0.10000
C2790       C  0.49566741  0.35674766  0.50854447     0.06200
C2791       C  0.50304513  0.37963977  0.99544252    -0.03800
C2792       C  0.49601990  0.38308436  0.96552074    -0.08200
C2793       C  0.49042526  0.36289849  0.94703832     0.05300
C2794       C  0.49182765  0.33865824  0.95973028    -0.03300
Br2795     Br  0.48314186  0.30918135  0.93841500    -0.03000
H2796       H  0.49982684  0.31682207  0.99947435     0.09200
H2797       H  0.49526702  0.40181940  0.95664581     0.07200
Br2798     Br  0.47046434  0.40428994  0.51918103    -0.03400
C2799       C  0.50396633  0.33603728  0.74138388    -0.10000
C2800       C  0.50295378  0.35660302  0.76010636     0.06200
C2801       C  0.49718288  0.37998067  0.74769175    -0.03800
C2802       C  0.49145472  0.38230587  0.71725586    -0.08200
C2803       C  0.49215983  0.36179234  0.69811701     0.05300
C2804       C  0.49889590  0.33842389  0.71054424    -0.03300
Br2805     Br  0.50317607  0.30914360  0.68731076    -0.03000
H2806       H  0.50853330  0.31803899  0.75082439     0.09200
H2807       H  0.48723577  0.40057143  0.70837856     0.07200
Br2808     Br  0.49891952  0.40986420  0.77060909    -0.03400
C2809       C  0.86649598  0.98606174  0.87590938    -0.10000
C2810       C  0.84484511  0.99830526  0.88579540     0.06200
C2811       C  0.82673542  0.00501208  0.86435902    -0.03800
C2812       C  0.83074775  0.99975635  0.83375535    -0.08200
C2813       C  0.85288605  0.98832124  0.82383473     0.05300
C2814       C  0.87072879  0.98123977  0.84542032    -0.03300
Br2815     Br  0.90106907  0.96453282  0.83493516    -0.03000
H2816       H  0.88062155  0.98059971  0.89204166     0.09200
H2817       H  0.81687801  0.00555199  0.81748254     0.07200
Br2818     Br  0.79616525  0.02085857  0.87553561    -0.03400
C2819       C  0.83374118  0.99736449  0.58304212    -0.10000
C2820       C  0.85750189  0.98921895  0.57365316     0.06200
C2821       C  0.87591061  0.98493466  0.59562510    -0.03800
C2822       C  0.87025858  0.98859399  0.62600749    -0.08200
C2823       C  0.84674127  0.99715781  0.63524995     0.05300
C2824       C  0.82834863  0.00159327  0.61346780    -0.03300
Br2825     Br  0.79549004  0.01247650  0.62401346    -0.03000
H2826       H  0.81938079  0.00116551  0.56654954     0.09200
H2827       H  0.88458396  0.98509910  0.64262651     0.07200
Br2828     Br  0.90898971  0.97393255  0.58609609    -0.03400
C2829       C  0.96643600  0.24386197  0.88111729    -0.10000
C2830       C  0.98879894  0.23320170  0.87088126     0.06200
C2831       C  0.01084451  0.24761536  0.87185639    -0.03800
C2832       C  0.00997826  0.27180430  0.88254890    -0.08200
C2833       C  0.98765548  0.28246784  0.89250738     0.05300
C2834       C  0.96565224  0.26818369  0.89177226    -0.03300
Br2835     Br  0.93419225  0.28010155  0.90633208    -0.03000
H2836       H  0.94934358  0.23322671  0.88091722     0.09200
H2837       H  0.02705629  0.28247826  0.88286569     0.07200
Br2838     Br  0.04324363  0.23597854  0.85996528    -0.03400
C2839       C  0.94242216  0.10713929  0.93454361    -0.10000
C2840       C  0.93013925  0.12198952  0.91273249     0.06200
C2841       C  0.90582944  0.11526507  0.90436168    -0.03800
C2842       C  0.89509866  0.09361776  0.91650179    -0.08200
C2843       C  0.90811509  0.07821347  0.93703506     0.05300
C2844       C  0.93204153  0.08542302  0.94612536    -0.03300
Br2845     Br  0.95262089  0.06591439  0.97264854    -0.03000
H2846       H  0.96112851  0.11159439  0.94174397     0.09200
H2847       H  0.87630039  0.08894130  0.90991138     0.07200
Br2848     Br  0.88635300  0.13462484  0.87670331    -0.03400
C2849       C  0.89851984  0.09623376  0.76810367    -0.10000
C2850       C  0.88436357  0.07974210  0.78577568     0.06200
C2851       C  0.89114796  0.07629063  0.81633319    -0.03800
C2852       C  0.91271193  0.08743130  0.82775000    -0.08200
C2853       C  0.92773872  0.10289978  0.80963524     0.05300
C2854       C  0.91982605  0.10781293  0.77959474    -0.03300
Br2855     Br  0.93759860  0.12907161  0.75196797    -0.03000
H2856       H  0.89403700  0.09887475  0.74449646     0.09200
H2857       H  0.91752752  0.08418775  0.85114584     0.07200
Br2858     Br  0.87161521  0.05628678  0.84355090    -0.03400
C2859       C  0.97367948  0.23936122  0.64166241    -0.10000
C2860       C  0.99145902  0.23198465  0.62004038     0.06200
C2861       C  0.00925429  0.24972696  0.61005212    -0.03800
C2862       C  0.00890660  0.27376070  0.62157759    -0.08200
C2863       C  0.99102641  0.28102555  0.64276307     0.05300
C2864       C  0.97342148  0.26355105  0.65305286    -0.03300
Br2865     Br  0.94993898  0.27141674  0.68422427    -0.03000
H2866       H  0.96022133  0.22612373  0.65029962     0.09200
H2867       H  0.02252582  0.28709054  0.61349468     0.07200
Br2868     Br  0.03418936  0.24328712  0.57991858    -0.03400
C2869       C  0.89647644  0.09025946  0.66242036    -0.10000
C2870       C  0.90848614  0.07494344  0.68396407     0.06200
C2871       C  0.93257513  0.08162859  0.69324039    -0.03800
C2872       C  0.94379772  0.10293276  0.68144790    -0.08200
C2873       C  0.93218386  0.11819387  0.65952791     0.05300
C2874       C  0.90801451  0.11156947  0.65018492    -0.03300
Br2875     Br  0.88964693  0.13072665  0.62121821    -0.03000
H2876       H  0.87773038  0.08591623  0.65530030     0.09200
H2877       H  0.96247292  0.10699602  0.68907918     0.07200
Br2878     Br  0.95211011  0.06226943  0.72106546    -0.03400
C2879       C  0.01863348  0.14315234  0.99704698    -0.10000
C2880       C  0.01134849  0.16272379  0.50737796     0.06200
C2881       C  0.99913793  0.18225116  0.98399077    -0.03800
C2882       C  0.00458796  0.17776202  0.95360512    -0.08200
C2883       C  0.01672087  0.15589585  0.94454714     0.05300
C2884       C  0.02345381  0.13831601  0.96669025    -0.03300
Br2885     Br  0.03974628  0.10768008  0.95725387    -0.03000
H2886       H  0.02369663  0.12497656  0.51359627     0.09200
H2887       H  0.99861535  0.19119571  0.93683784     0.07200
Br2888     Br  0.98225219  0.21237857  0.99385495    -0.03400
C2889       C  0.01390108  0.13653608  0.71588158    -0.10000
C2890       C  0.01922995  0.15647345  0.69638059     0.06200
C2891       C  0.01849610  0.18084308  0.70825232    -0.03800
C2892       C  0.01142232  0.18459188  0.73840541    -0.08200
C2893       C  0.00573454  0.16451180  0.75733948     0.05300
C2894       C  0.00764856  0.14032061  0.74598604    -0.03300
Br2895     Br  0.00225677  0.11143041  0.77069123    -0.03000
H2896       H  0.01436083  0.11772515  0.70770953     0.09200
H2897       H  0.01129366  0.20315419  0.74740044     0.07200
Br2898     Br  0.02771991  0.20993423  0.68557524    -0.03400
C2899       C  0.90314024  0.09646401  0.51920909    -0.10000
C2900       C  0.88911160  0.07985664  0.53687172     0.06200
C2901       C  0.89686987  0.07502870  0.56680149    -0.03800
C2902       C  0.91914215  0.08499877  0.57750986    -0.08200
C2903       C  0.93383363  0.10077838  0.55946191     0.05300
C2904       C  0.92525900  0.10682946  0.53002983    -0.03300
Br2905     Br  0.94328109  0.12788283  0.50232189    -0.03000
H2906       H  0.89277513  0.10265315  0.99729326     0.09200
H2907       H  0.92468364  0.08071534  0.60042147     0.07200
Br2908     Br  0.87792790  0.05447869  0.59406693    -0.03400
C2909       C  0.03999475  0.77420342  0.88264506    -0.10000
C2910       C  0.01721449  0.78382894  0.89315344     0.06200
C2911       C  0.99603426  0.76811509  0.89309493    -0.03800
C2912       C  0.99794442  0.74406819  0.88198780    -0.08200
C2913       C  0.02059169  0.73462134  0.87126491     0.05300
C2914       C  0.04190212  0.74988054  0.87207837    -0.03300
Br2915     Br  0.07387577  0.73917641  0.85781159    -0.03000
H2916       H  0.05653506  0.78567215  0.88249827     0.09200
H2917       H  0.98146961  0.73248274  0.88204388     0.07200
Br2918     Br  0.96355318  0.77753898  0.90738339    -0.03400
C2919       C  0.95266219  0.94755170  0.92668752    -0.10000
C2920       C  0.94937466  0.92216669  0.93215376     0.06200
C2921       C  0.92969707  0.91429748  0.95113696    -0.03800
C2922       C  0.91378304  0.93182243  0.96400913    -0.08200
C2923       C  0.91707148  0.95729044  0.95848313     0.05300
C2924       C  0.93681360  0.96505907  0.93935875    -0.03300
Br2925     Br  0.94304881  0.99898301  0.92802197    -0.03000
H2926       H  0.96764549  0.95389226  0.91210635     0.09200
H2927       H  0.89895091  0.92545804  0.97878106     0.07200
Br2928     Br  0.92448033  0.88023027  0.96209405    -0.03400
C2929       C  0.04001594  0.77128435  0.63357143    -0.10000
C2930       C  0.01736851  0.78104737  0.64417197     0.06200
C2931       C  0.99597435  0.76566115  0.64444120    -0.03800
C2932       C  0.99762855  0.74158993  0.63366574    -0.08200
C2933       C  0.02012631  0.73209088  0.62267860     0.05300
C2934       C  0.04158525  0.74706590  0.62297373    -0.03300
Br2935     Br  0.07313263  0.73627810  0.60742733    -0.03000
H2936       H  0.05664544  0.78262201  0.63312911     0.09200
H2937       H  0.98105026  0.73014815  0.63382713     0.07200
Br2938     Br  0.96340112  0.77584497  0.65766897    -0.03400
C2939       C  0.91626101  0.92929291  0.71817474    -0.10000
C2940       C  0.91698563  0.95412296  0.70845751     0.06200
C2941       C  0.93493555  0.96130780  0.68660726    -0.03800
C2942       C  0.95172332  0.94393002  0.67543586    -0.08200
C2943       C  0.95098431  0.91918962  0.68507221     0.05300
C2944       C  0.93309464  0.91187600  0.70680139    -0.03300
Br2945     Br  0.93178914  0.87897091  0.72337003    -0.03000
H2946       H  0.90286827  0.92347921  0.73515898     0.09200
H2947       H  0.96525467  0.94973785  0.65859917     0.07200
Br2948     Br  0.93704794  0.99410796  0.66952971    -0.03400
C2949       C  0.99590127  0.83624499  0.80770086    -0.10000
C2950       C  0.98756950  0.85982462  0.81678108     0.06200
C2951       C  0.98614069  0.87888281  0.79478455    -0.03800
C2952       C  0.99248786  0.87389766  0.76497050    -0.08200
C2953       C  0.00041119  0.85037157  0.75591067     0.05300
C2954       C  0.00240150  0.83141582  0.77765106    -0.03300
Br2955     Br  0.01270085  0.79865960  0.76711032    -0.03000
H2956       H  0.99778913  0.82125129  0.82440007     0.09200
H2957       H  0.99074453  0.88884716  0.74809402     0.07200
Br2958     Br  0.97493491  0.91191266  0.80311860    -0.03400
C2959       C  0.99037314  0.87732620  0.54894178    -0.10000
C2960       C  0.98631655  0.85695311  0.56829533     0.06200
C2961       C  0.98856997  0.83282034  0.55590353    -0.03800
C2962       C  0.99536237  0.82978440  0.52546291    -0.08200
C2963       C  0.99960985  0.85026730  0.50658867     0.05300
C2964       C  0.99672038  0.87418894  0.51858463    -0.03300
Br2965     Br  0.99490650  0.90585404  0.99267029    -0.03000
H2966       H  0.98905748  0.89597747  0.55750495     0.09200
H2967       H  0.99667831  0.81133151  0.51628381     0.07200
Br2968     Br  0.98241486  0.80289597  0.57838283    -0.03400
C2969       C  0.08802087  0.08593582  0.79701164    -0.10000
C2970       C  0.08544685  0.06038930  0.80228614     0.06200
C2971       C  0.06634163  0.05204591  0.82208553    -0.03800
C2972       C  0.04967923  0.06899314  0.83451862    -0.08200
C2973       C  0.05197969  0.09441160  0.82872686     0.05300
C2974       C  0.07165867  0.10291694  0.81009192    -0.03300
Br2975     Br  0.07651353  0.13722621  0.80000981    -0.03000
H2976       H  0.10261725  0.09279469  0.78222326     0.09200
H2977       H  0.03504198  0.06226073  0.84935246     0.07200
Br2978     Br  0.06242512  0.01815598  0.83499547    -0.03400
C2979       C  0.10752499  0.92645746  0.84668087    -0.10000
C2980       C  0.09525235  0.94090164  0.82449980     0.06200
C2981       C  0.07160583  0.93309615  0.81482476    -0.03800
C2982       C  0.06099993  0.91165759  0.82701692    -0.08200
C2983       C  0.07268365  0.89752598  0.84992491     0.05300
C2984       C  0.09652980  0.90508953  0.85943050    -0.03300
Br2985     Br  0.11513561  0.88727592  0.88944103    -0.03000
H2986       H  0.12598813  0.93162326  0.85404474     0.09200
H2987       H  0.04261447  0.90672357  0.81912792     0.07200
Br2988     Br  0.05165338  0.95118229  0.78618764    -0.03400
C2989       C  0.09078935  0.92674152  0.68183107    -0.10000
C2990       C  0.07571835  0.91190273  0.70061570     0.06200
C2991       C  0.08431010  0.90667730  0.73034084    -0.03800
C2992       C  0.10567910  0.91843560  0.74134940    -0.08200
C2993       C  0.11944723  0.93492851  0.72324645     0.05300
C2994       C  0.11267646  0.93759810  0.69265108    -0.03300
Br2995     Br  0.13322505  0.95546668  0.66458226    -0.03000
H2996       H  0.08585905  0.92953919  0.65837571     0.09200
H2997       H  0.11053343  0.91590396  0.76486703     0.07200
Br2998     Br  0.06773598  0.88437503  0.75795485    -0.03400
C2999       C  0.04591548  0.07007051  0.56816165    -0.10000
C3000       C  0.05563727  0.09126761  0.58210452     0.06200
C3001       C  0.08175097  0.09471665  0.58200742    -0.03800
C3002       C  0.09712386  0.07766570  0.56730388    -0.08200
C3003       C  0.08721422  0.05679242  0.55294234     0.05300
C3004       C  0.06126260  0.05293185  0.55388872    -0.03300
Br3005     Br  0.04506063  0.02547435  0.53494772    -0.03000
H3006       H  0.02601780  0.06685398  0.56780241     0.09200
H3007       H  0.11707861  0.08057914  0.56751726     0.07200
Br3008     Br  0.09805562  0.12151373  0.60212726    -0.03400
C3009       C  0.11037426  0.91770863  0.58889581    -0.10000
C3010       C  0.09764167  0.93470558  0.57000075     0.06200
C3011       C  0.07250925  0.92985041  0.56332334    -0.03800
C3012       C  0.06058825  0.90940041  0.57640739    -0.08200
C3013       C  0.07277715  0.89312304  0.59676140     0.05300
C3014       C  0.09829356  0.89706032  0.60201038    -0.03300
Br3015     Br  0.11768217  0.87460871  0.62599124    -0.03000
H3016       H  0.12999369  0.92034431  0.59337852     0.09200
H3017       H  0.04102867  0.90699741  0.57136810     0.07200
Br3018     Br  0.05253275  0.95088779  0.53791517    -0.03400
C3019       C  0.17166955  0.02267409  0.92328533    -0.10000
C3020       C  0.14886773  0.03301398  0.93276837     0.06200
C3021       C  0.13081819  0.03902466  0.91097005    -0.03800
C3022       C  0.13551178  0.03400272  0.88068849    -0.08200
C3023       C  0.15780120  0.02262492  0.87136538     0.05300
C3024       C  0.17614184  0.01722748  0.89293015    -0.03300
Br3025     Br  0.20762018  0.00300912  0.88223137    -0.03000
H3026       H  0.18574231  0.01777763  0.93973049     0.09200
H3027       H  0.12124248  0.03849044  0.86430968     0.07200
Br3028     Br  0.09946613  0.05412519  0.92078458    -0.03400
C3029       C  0.12859817  0.02025119  0.66411884    -0.10000
C3030       C  0.14789874  0.02833605  0.68282365     0.06200
C3031       C  0.17192562  0.03185499  0.66993643    -0.03800
C3032       C  0.17654249  0.02495328  0.64001668    -0.08200
C3033       C  0.15742292  0.01554262  0.62217654     0.05300
C3034       C  0.13308185  0.01434067  0.63405415    -0.03300
Br3035     Br  0.10508760  0.00444827  0.61029122    -0.03000
H3036       H  0.10994135  0.01780820  0.67302552     0.09200
H3037       H  0.19488048  0.02779052  0.63031438     0.07200
Br3038     Br  0.19891388  0.04745069  0.69072556    -0.03400
C3039       C  0.08446371  0.93486613  0.93023362    -0.10000
C3040       C  0.07324860  0.91663754  0.94857714     0.06200
C3041       C  0.08559642  0.90938070  0.97552814    -0.03800
C3042       C  0.10738978  0.92150952  0.98428954    -0.08200
C3043       C  0.11758512  0.94082364  0.96685180     0.05300
C3044       C  0.10654683  0.94648815  0.93870591    -0.03300
Br3045     Br  0.12925642  0.96218557  0.41248701    -0.03000
H3046       H  0.07628137  0.93994173  0.90875990     0.09200
H3047       H  0.11536674  0.91691216  0.00603358     0.07200
Br3048     Br  0.07389222  0.88378085  0.00252683    -0.03400
C3049       C  0.73702679  0.99539376  0.76128189    -0.10000
C3050       C  0.72571028  0.01813732  0.76780898     0.06200
C3051       C  0.73956606  0.04012638  0.76317854    -0.03800
C3052       C  0.76417540  0.03885099  0.75284408    -0.08200
C3053       C  0.77558377  0.01607827  0.74650077     0.05300
C3054       C  0.76150824  0.99409895  0.75064823    -0.03300
Br3055     Br  0.77410722  0.96137855  0.74332354    -0.03000
H3056       H  0.72668682  0.97831652  0.76430847     0.09200
H3057       H  0.77446664  0.05594506  0.74975573     0.07200
Br3058     Br  0.72677522  0.07259715  0.77135046    -0.03400
C3059       C  0.77074889  0.00470527  0.02312667    -0.10000
C3060       C  0.77712577  0.02013947  0.99875644     0.06200
C3061       C  0.76634917  0.04138282  0.50495692    -0.03800
C3062       C  0.74166496  0.04055364  0.51510844    -0.08200
C3063       C  0.72987711  0.01802393  0.52229010     0.05300
C3064       C  0.74665665  0.00475900  0.03509803    -0.03300
Br3065     Br  0.74080970  0.98462939  0.07039136    -0.03000
H3066       H  0.78470089  0.99278829  0.03317241     0.09200
H3067       H  0.73159360  0.05780967  0.51730283     0.07200
Br3068     Br  0.77968623  0.07359869  0.49578206    -0.03400
C3069       C  0.67371824  0.99962934  0.93304412    -0.10000
C3070       C  0.65169341  0.98845991  0.94393935     0.06200
C3071       C  0.63396629  0.98002890  0.92317695    -0.03800
C3072       C  0.63778188  0.98412187  0.89239713    -0.08200
C3073       C  0.65901952  0.99670930  0.88152124     0.05300
C3074       C  0.67743503  0.00392444  0.90212602    -0.03300
Br3075     Br  0.70803122  0.01917749  0.88942983    -0.03000
H3076       H  0.68763819  0.00610823  0.94872641     0.09200
H3077       H  0.62357716  0.97798678  0.87686813     0.07200
Br3078     Br  0.60436745  0.96255512  0.93532128    -0.03400
C3079       C  0.67057524  0.00073821  0.68436966    -0.10000
C3080       C  0.64743930  0.99091086  0.69376706     0.06200
C3081       C  0.62936871  0.98551465  0.67191709    -0.03800
C3082       C  0.63464242  0.99007287  0.64153586    -0.08200
C3083       C  0.65749572  0.00049798  0.63222651     0.05300
C3084       C  0.67559735  0.00582222  0.65395870    -0.03300
Br3085     Br  0.70747870  0.01945770  0.64349366    -0.03000
H3086       H  0.68460050  0.00536347  0.70088556     0.09200
H3087       H  0.62050803  0.98578905  0.62500190     0.07200
Br3088     Br  0.59739601  0.97160008  0.68177213    -0.03400
C3089       C  0.49646799  0.24738835  0.88376270    -0.10000
C3090       C  0.51897641  0.23635642  0.89254545     0.06200
C3091       C  0.54097773  0.25064888  0.89114719    -0.03800
C3092       C  0.54001174  0.27525750  0.88103330    -0.08200
C3093       C  0.51752136  0.28620172  0.87170300     0.05300
C3094       C  0.49552738  0.27172045  0.87288578    -0.03300
Br3095     Br  0.46320722  0.28343478  0.86081049    -0.03000
H3096       H  0.47934590  0.23682036  0.88484886     0.09200
H3097       H  0.55709947  0.28590035  0.88054147     0.07200
Br3098     Br  0.57275314  0.23845798  0.90428726    -0.03400
C3099       C  0.61051425  0.10148767  0.49305076    -0.10000
C3100       C  0.62158276  0.08225765  0.97722628     0.06200
C3101       C  0.61282733  0.07682938  0.94795181    -0.03800
C3102       C  0.59114899  0.08800889  0.93693714    -0.08200
C3103       C  0.57829308  0.10593732  0.95360315     0.05300
C3104       C  0.58866305  0.11330972  0.98164231    -0.03300
Br3105     Br  0.57564516  0.13908842  0.50673776    -0.03000
H3106       H  0.61685529  0.10593393  0.51551836     0.09200
H3107       H  0.58460302  0.08285839  0.91480477     0.07200
Br3108     Br  0.62953400  0.05395039  0.92183767    -0.03400
C3109       C  0.60996362  0.09369946  0.85211482    -0.10000
C3110       C  0.59696351  0.07989151  0.83023787     0.06200
C3111       C  0.57454114  0.08963525  0.81890892    -0.03800
C3112       C  0.56579474  0.11226537  0.82927168    -0.08200
C3113       C  0.57776833  0.12542466  0.85250745     0.05300
C3114       C  0.60059118  0.11613864  0.86333622    -0.03300
Br3115     Br  0.61994035  0.13315432  0.89292851    -0.03000
H3116       H  0.62770317  0.08715200  0.86050085     0.09200
H3117       H  0.54826858  0.11873560  0.82013055     0.07200
Br3118     Br  0.55351829  0.07263516  0.79082436    -0.03400
C3119       C  0.53990538  0.24793732  0.62943759    -0.10000
C3120       C  0.51734159  0.23719984  0.63921895     0.06200
C3121       C  0.49524540  0.25137086  0.63680279    -0.03800
C3122       C  0.49628513  0.27546767  0.62525183    -0.08200
C3123       C  0.51895170  0.28647559  0.61665627     0.05300
C3124       C  0.54089926  0.27222841  0.61824657    -0.03300
Br3125     Br  0.57251875  0.28407151  0.60378413    -0.03000
H3126       H  0.55701659  0.23737043  0.63036431     0.09200
H3127       H  0.47915440  0.28599108  0.62391347     0.07200
Br3128     Br  0.46261681  0.23933782  0.64745748    -0.03400
C3129       C  0.59340921  0.09091071  0.68518474    -0.10000
C3130       C  0.57957372  0.10792016  0.70212183     0.06200
C3131       C  0.58839349  0.11403592  0.73136471    -0.03800
C3132       C  0.60882298  0.10144403  0.74373304    -0.08200
C3133       C  0.62122614  0.08295861  0.72762967     0.05300
C3134       C  0.61422780  0.07892939  0.69735101    -0.03300
Br3135     Br  0.63214259  0.05677756  0.67160765    -0.03000
H3136       H  0.58812071  0.08689701  0.66220607     0.09200
H3137       H  0.61376081  0.10483768  0.76699475     0.07200
Br3138     Br  0.57326385  0.13841337  0.75690829    -0.03400
C3139       C  0.49499054  0.18732718  0.77128092    -0.10000
C3140       C  0.50109175  0.16730069  0.75302812     0.06200
C3141       C  0.50053700  0.14318623  0.76537297    -0.03800
C3142       C  0.49546277  0.13956137  0.79594194    -0.08200
C3143       C  0.48990086  0.15956086  0.81482281     0.05300
C3144       C  0.48890709  0.18367435  0.80178701    -0.03300
Br3145     Br  0.47822865  0.21243111  0.82318440    -0.03000
H3146       H  0.49402047  0.20575432  0.76149242     0.09200
H3147       H  0.49616520  0.12087193  0.80496278     0.07200
Br3148     Br  0.50644087  0.11431925  0.74147931    -0.03400
C3149       C  0.49276692  0.14007075  0.54638805    -0.10000
C3150       C  0.48993920  0.16046554  0.56546099     0.06200
C3151       C  0.49250482  0.18462293  0.55274951    -0.03800
C3152       C  0.49824970  0.18768933  0.52211631    -0.08200
C3153       C  0.50114419  0.16721277  0.50357575     0.05300
C3154       C  0.49822147  0.14324948  0.51586080    -0.03300
Br3155     Br  0.49488546  0.11400978  0.99346390    -0.03000
H3156       H  0.49126450  0.12138386  0.55530209     0.09200
H3157       H  0.49988933  0.20616377  0.51255950     0.07200
Br3158     Br  0.48866742  0.21458453  0.57488425    -0.03400
C3159       C  0.61211134  0.09762257  0.59800373    -0.10000
C3160       C  0.59907592  0.08221398  0.57778713     0.06200
C3161       C  0.57557562  0.09008768  0.56762364    -0.03800
C3162       C  0.56565062  0.11231311  0.57780993    -0.08200
C3163       C  0.57776222  0.12702212  0.59952032     0.05300
C3164       C  0.60171677  0.11974388  0.60890208    -0.03300
Br3165     Br  0.62115986  0.13910628  0.63615996    -0.03000
H3166       H  0.63062435  0.09253516  0.60539475     0.09200
H3167       H  0.54727690  0.11723622  0.56974993     0.07200
Br3168     Br  0.55474217  0.07087493  0.54155830    -0.03400
C3169       C  0.51168164  0.77370655  0.88469804    -0.10000
C3170       C  0.48855169  0.78445099  0.87816943     0.06200
C3171       C  0.46673540  0.77031395  0.88333790    -0.03800
C3172       C  0.46864322  0.74578199  0.89363936    -0.08200
C3173       C  0.49189396  0.73496774  0.89982630     0.05300
C3174       C  0.51360213  0.74961958  0.89596912    -0.03300
Br3175     Br  0.54692166  0.73846645  0.90439936    -0.03000
H3176       H  0.52862740  0.78428125  0.88138568     0.09200
H3177       H  0.45175288  0.73509033  0.89675788     0.07200
Br3178     Br  0.43376328  0.78265846  0.87591143    -0.03400
C3179       C  0.56809462  0.91602666  0.81909827    -0.10000
C3180       C  0.54889611  0.92539875  0.83717976     0.06200
C3181       C  0.54706817  0.95111723  0.84146253    -0.03800
C3182       C  0.56445985  0.96686403  0.82785678    -0.08200
C3183       C  0.58374317  0.95758508  0.80960905     0.05300
C3184       C  0.58528890  0.93176252  0.80505351    -0.03300
Br3185     Br  0.60918715  0.91647436  0.77879985    -0.03000
H3186       H  0.56933643  0.89629634  0.81517624     0.09200
H3187       H  0.56298684  0.98654515  0.83193799     0.07200
Br3188     Br  0.52215726  0.96586840  0.86678508    -0.03400
C3189       C  0.48844058  0.76699162  0.60325553    -0.10000
C3190       C  0.48824477  0.78529539  0.62542399     0.06200
C3191       C  0.48720538  0.77832345  0.65604457    -0.03800
C3192       C  0.48913519  0.75335048  0.66420464    -0.08200
C3193       C  0.48989995  0.73505293  0.64206359     0.05300
C3194       C  0.48814098  0.74192424  0.61144558    -0.03300
Br3195     Br  0.48437526  0.71785784  0.58033969    -0.03000
H3196       H  0.48816529  0.77222074  0.57960736     0.09200
H3197       H  0.48937393  0.74814129  0.68786262     0.07200
Br3198     Br  0.48231607  0.80211729  0.68725238    -0.03400
C3199       C  0.57523892  0.91752138  0.57813313    -0.10000
C3200       C  0.55226234  0.92645301  0.58855564     0.06200
C3201       C  0.54739574  0.95211035  0.58643541    -0.03800
C3202       C  0.56478614  0.96781055  0.57269643    -0.08200
C3203       C  0.58757994  0.95883180  0.56156222     0.05300
C3204       C  0.59296614  0.93332044  0.56517718    -0.03300
Br3205     Br  0.62407648  0.91829327  0.55405116    -0.03000
H3206       H  0.57951602  0.89797448  0.57993756     0.09200
H3207       H  0.56045345  0.98735424  0.57114287     0.07200
Br3208     Br  0.51830723  0.96757474  0.60327565    -0.03400
C3209       C  0.51067209  0.88248983  0.97149188    -0.10000
C3210       C  0.51661801  0.86245250  0.95286270     0.06200
C3211       C  0.51838645  0.83849427  0.96617503    -0.03800
C3212       C  0.51224352  0.83491258  0.99665038    -0.08200
C3213       C  0.50759214  0.85512824  0.51493605     0.05300
C3214       C  0.50571231  0.87895810  0.00209855    -0.03300
Br3215     Br  0.50529171  0.90832201  0.52631716    -0.03000
H3216       H  0.50962575  0.90109718  0.96225862     0.09200
H3217       H  0.51367867  0.81659086  0.00665888     0.07200
Br3218     Br  0.53025345  0.80994295  0.94516556    -0.03400
C3219       C  0.51130772  0.88193195  0.72115148    -0.10000
C3220       C  0.52114345  0.86313018  0.70303632     0.06200
C3221       C  0.52747316  0.84028056  0.71694391    -0.03800
C3222       C  0.52072154  0.83566096  0.74719958    -0.08200
C3223       C  0.50901709  0.85401372  0.76436203     0.05300
C3224       C  0.50604461  0.87778485  0.75156399    -0.03300
Br3225     Br  0.49629853  0.90586876  0.77488009    -0.03000
H3226       H  0.50732228  0.90002902  0.71162363     0.09200
H3227       H  0.52538948  0.81806007  0.75761635     0.07200
Br3228     Br  0.54699822  0.81563442  0.69674756    -0.03400
C3229       C  0.26756360  0.02178710  0.49739382    -0.10000
C3230       C  0.27779198  0.00087593  0.99327370     0.06200
C3231       C  0.26473163  0.97903526  0.00167112    -0.03800
C3232       C  0.23946582  0.98026187  0.00945576    -0.08200
C3233       C  0.22884621  0.00010194  0.50893392     0.05300
C3234       C  0.24316305  0.02215592  0.50836981    -0.03300
Br3235     Br  0.23151622  0.05363038  0.52255664    -0.03000
H3236       H  0.27830702  0.03876398  0.49773146     0.09200
H3237       H  0.22993860  0.96339099  0.01614578     0.07200
Br3238     Br  0.27945021  0.94661066  0.00246757    -0.03400
C3239       C  0.41342084  0.08101555  0.94148228    -0.10000
C3240       C  0.42247712  0.06063352  0.95799246     0.06200
C3241       C  0.44846110  0.05711756  0.95988467    -0.03800
C3242       C  0.46460175  0.07374667  0.94538653    -0.08200
C3243       C  0.45560445  0.09434594  0.92908647     0.05300
C3244       C  0.42954095  0.09755841  0.92676163    -0.03300
Br3245     Br  0.41426466  0.12293389  0.90247328    -0.03000
H3246       H  0.39353138  0.08365218  0.93909571     0.09200
H3247       H  0.48445361  0.07081446  0.94764339     0.07200
Br3248     Br  0.46337750  0.03107757  0.98344550    -0.03400
C3249       C  0.39490911  0.92302267  0.91897819    -0.10000
C3250       C  0.40715941  0.93563740  0.94255659     0.06200
C3251       C  0.42768510  0.92384623  0.95624478    -0.03800
C3252       C  0.43625457  0.90125545  0.94519109    -0.08200
C3253       C  0.42611973  0.89039278  0.91907386     0.05300
C3254       C  0.40407839  0.90065607  0.90734184    -0.03300
Br3255     Br  0.38573580  0.88510322  0.87569654    -0.03000
H3256       H  0.37813516  0.93067014  0.90916096     0.09200
H3257       H  0.45275732  0.89340579  0.95550646     0.07200
Br3258     Br  0.44657831  0.93810486  0.98838724    -0.03400
C3259       C  0.40008701  0.95041230  0.56297669    -0.10000
C3260       C  0.38710530  0.93952143  0.53871129     0.06200
C3261       C  0.39475283  0.91581630  0.52947604    -0.03800
C3262       C  0.41563237  0.90455642  0.54299341    -0.08200
C3263       C  0.42955953  0.91639041  0.56578778     0.05300
C3264       C  0.42120248  0.93959824  0.57584963    -0.03300
Br3265     Br  0.43842353  0.95880953  0.60549821    -0.03000
H3266       H  0.39482071  0.96854132  0.57103410     0.09200
H3267       H  0.42101185  0.88633218  0.53541265     0.07200
Br3268     Br  0.37596789  0.89878482  0.00341881    -0.03400
C3269       C  0.26603761  0.97916242  0.74964790    -0.10000
C3270       C  0.27717615  0.00151438  0.74021543     0.06200
C3271       C  0.26254546  0.02335837  0.74055269    -0.03800
C3272       C  0.23784735  0.02237123  0.75059808    -0.08200
C3273       C  0.22681434  0.00006001  0.76012691     0.05300
C3274       C  0.24127699  0.97823868  0.75957441    -0.03300
Br3275     Br  0.22928463  0.94682143  0.77413884    -0.03000
H3276       H  0.27678632  0.96221345  0.74990306     0.09200
H3277       H  0.22714200  0.03934473  0.75094215     0.07200
Br3278     Br  0.27465083  0.05559340  0.72890348    -0.03400
C3279       C  0.44407840  0.05435265  0.69821047    -0.10000
C3280       C  0.42095220  0.06329948  0.70845957     0.06200
C3281       C  0.41606624  0.08895449  0.70537289    -0.03800
C3282       C  0.43381318  0.10458381  0.69195465    -0.08200
C3283       C  0.45677960  0.09556198  0.68146966     0.05300
C3284       C  0.46183439  0.06999434  0.68488625    -0.03300
Br3285     Br  0.49198922  0.05453188  0.67107849    -0.03000
H3286       H  0.44839739  0.03482250  0.70011789     0.09200
H3287       H  0.42962283  0.12414562  0.69004528     0.07200
Br3288     Br  0.38597157  0.10455218  0.71903146    -0.03400
C3289       C  0.39749754  0.92591785  0.66786458    -0.10000
C3290       C  0.40968936  0.93969883  0.69037559     0.06200
C3291       C  0.43175740  0.93006635  0.70280929    -0.03800
C3292       C  0.44110277  0.90759399  0.69256788    -0.08200
C3293       C  0.43007832  0.89473781  0.66841575     0.05300
C3294       C  0.40745905  0.90381127  0.65675762    -0.03300
Br3295     Br  0.38940501  0.88750557  0.62540108    -0.03000
H3296       H  0.38004955  0.93239033  0.65854962     0.09200
H3297       H  0.45843512  0.90117063  0.70225720     0.07200
Br3298     Br  0.45158917  0.94728527  0.73188369    -0.03400
C3299       C  0.37318266  0.03391654  0.84116995    -0.10000
C3300       C  0.35327402  0.02972214  0.82161713     0.06200
C3301       C  0.33054885  0.02067244  0.83403094    -0.03800
C3302       C  0.32854086  0.01565253  0.86513441    -0.08200
C3303       C  0.34878911  0.01942852  0.88432659     0.05300
C3304       C  0.37128075  0.02857904  0.87188390    -0.03300
Br3305     Br  0.40137732  0.03111880  0.89461914    -0.03000
H3306       H  0.39092374  0.04026589  0.83229779     0.09200
H3307       H  0.31113758  0.00872156  0.87433247     0.07200
Br3308     Br  0.30195262  0.01314630  0.81018073    -0.03400
C3309       C  0.33013619  0.01665442  0.61403057    -0.10000
C3310       C  0.35062127  0.01868656  0.63310203     0.06200
C3311       C  0.37408464  0.02479206  0.62080469    -0.03800
C3312       C  0.37657698  0.02953497  0.59002913    -0.08200
C3313       C  0.35611972  0.02777504  0.57062123     0.05300
C3314       C  0.33263428  0.02099921  0.58300742    -0.03300
Br3315     Br  0.30337688  0.01554827  0.55949906    -0.03000
H3316       H  0.31209636  0.01170358  0.62333257     0.09200
H3317       H  0.39490935  0.03385245  0.58113838     0.07200
Br3318     Br  0.40393166  0.02464738  0.64437265    -0.03400
C3319       C  0.39519127  0.91864634  0.77454014    -0.10000
C3320       C  0.38419561  0.93842209  0.78991511     0.06200
C3321       C  0.39310767  0.94393684  0.81908925    -0.03800
C3322       C  0.41423071  0.93209130  0.83051824    -0.08200
C3323       C  0.42639392  0.91344012  0.81438133     0.05300
C3324       C  0.41571045  0.90587161  0.78657364    -0.03300
Br3325     Br  0.42772847  0.87859765  0.76304980    -0.03000
H3326       H  0.38874605  0.91394169  0.75219492     0.09200
H3327       H  0.42088078  0.93732046  0.85259105     0.07200
Br3328     Br  0.37725331  0.96748863  0.84485020    -0.03400
loop_ 
_geom_bond_atom_site_label_1 
_geom_bond_atom_site_label_2 
_geom_bond_distance 
_geom_bond_site_symmetry_2 
_ccdc_geom_bond_type 
O1          Cr19   2.008       .  S
O1            C9   1.269       .  A
O2          Cr19   1.956   1_565  S
O2            C3   1.251       .  A
C3            O4   1.274       .  A
C3         C1656   1.487       .  S
O4          Cr20   2.050       .  S
O5          Cr20   1.980       .  S
O5            C6   1.259   1_565  A
C6            O7   1.263       .  A
C6         C1606   1.492       .  S
O7          Cr21   2.009       .  S
O8          Cr21   1.963       .  S
O8            C9   1.256       .  A
C9         C1636   1.481       .  S
O10         Cr19   1.973       .  S
O10          C18   1.261       .  A
O11         Cr19   2.024   1_565  S
O11          C12   1.269       .  A
C12          O13   1.256       .  A
C12        C1626   1.486       .  S
O13         Cr20   1.956       .  S
O14         Cr20   2.044       .  S
O14          C15   1.279   1_565  A
C15          O16   1.257       .  A
C15        C1646   1.472       .  S
O16         Cr21   1.947       .  S
O17         Cr21   2.012       .  S
O17          C18   1.267       .  A
C18        C1616   1.483       .  S
Cr19         O22   1.755       .  S
Cr20         O22   1.763   1_565  S
Cr21         O22   1.769       .  S
O23       Cr1705   2.009   1_545  S
O23          C31   1.268       .  A
O24       Cr1705   1.941       .  S
O24          C25   1.242       .  A
C25        O1690   1.277   1_554  A
C25        C1596   1.498       .  S
O26         Cr42   2.090       .  S
O26        C1689   1.279       .  A
O27         Cr42   1.972       .  S
O27          C28   1.259   1_565  A
C28          O29   1.267       .  A
C28        C1566   1.481   1_545  S
O29         Cr43   2.009       .  S
O30       Cr1707   1.979   1_554  S
O30          C31   1.257       .  A
C31        C1649   1.492       .  S
O32         Cr41   1.961   1_545  S
O32          C40   1.260       .  A
O33         Cr41   2.039       .  S
O33          C34   1.270       .  A
C34          O35   1.252       .  A
C34        C1586   1.488       .  S
O35         Cr42   1.953       .  S
O36         Cr42   2.044       .  S
O36          C37   1.280   1_565  A
C37          O38   1.254       .  A
C37        C1639   1.461       .  S
O38         Cr43   1.930       .  S
O39         Cr43   2.023       .  S
O39          C40   1.274       .  A
C40        C1576   1.482       .  S
Cr41       O1687   1.999   1_565  S
Cr41       O1688   1.941       .  S
Cr41         O44   1.742   1_565  S
Cr42         O44   1.763   1_565  S
Cr43       O1694   1.975       .  S
Cr43         O44   1.761       .  S
O45         Cr63   1.983       .  S
O45          C53   1.259       .  A
O46         Cr63   2.014       .  S
O46          C47   1.266       .  A
C47          O48   1.255       .  A
C47        C1526   1.465       .  S
O48         Cr64   1.969       .  S
O49         Cr64   2.059       .  S
O49          C50   1.272       .  A
C50          O51   1.244       .  A
C50        C1629   1.490       .  S
O51         Cr65   1.944       .  S
O52         Cr65   2.007       .  S
O52          C53   1.267       .  A
C53        C1556   1.487       .  S
O54         Cr63   2.023       .  S
O54          C62   1.273       .  A
O55         Cr63   1.942       .  S
O55          C56   1.256       .  A
C56          O57   1.278       .  A
C56        C1549   1.465       .  S
O57         Cr64   2.036       .  S
O58         Cr64   1.952       .  S
O58          C59   1.254       .  A
C59          O60   1.274       .  A
C59        C1599   1.496       .  S
O60         Cr65   2.051       .  S
O61         Cr65   1.961       .  S
O61          C62   1.262       .  A
C62        C1536   1.469       .  S
Cr63         O66   1.764       .  S
Cr64         O66   1.767       .  S
Cr65         O66   1.747       .  S
O67         Cr85   1.979       .  S
O67          C75   1.257       .  A
O68         Cr85   2.005       .  S
O68          C69   1.266       .  A
C69          O70   1.256       .  A
C69        C1506   1.485       .  S
O70         Cr86   1.974       .  S
O71         Cr86   2.062       .  S
O71          C72   1.271       .  A
C72          O73   1.242       .  A
C72        C1589   1.487       .  S
O73         Cr87   1.943       .  S
O74         Cr87   2.004       .  S
O74          C75   1.266       .  A
C75        C1546   1.487       .  S
O76         Cr85   2.010       .  S
O76          C84   1.270       .  A
O77         Cr85   1.949       .  S
O77          C78   1.257       .  A
C78          O79   1.279       .  A
C78        C1559   1.470       .  S
O79         Cr86   2.042       .  S
O80         Cr86   1.952       .  S
O80          C81   1.253       .  A
C81          O82   1.276       .  A
C81        C1659   1.496       .  S
O82         Cr87   2.051       .  S
O83         Cr87   1.967       .  S
O83          C84   1.263       .  A
C84        C1516   1.464       .  S
Cr85         O88   1.761       .  S
Cr86         O88   1.767       .  S
Cr87         O88   1.747       .  S
O89        Cr107   2.010       .  S
O89          C97   1.269       .  A
O90        Cr107   1.941       .  S
O90          C91   1.237       .  A
C91          O92   1.272       .  A
C91        C1499   1.493       .  S
O92        Cr108   2.075       .  S
O93        Cr108   1.974       .  S
O93          C94   1.260       .  A
C94          O95   1.264       .  A
C94        C1456   1.483       .  S
O95        Cr109   2.005       .  S
O96        Cr109   1.980       .  S
O96          C97   1.257       .  A
C97        C1486   1.490       .  S
O98        Cr107   1.964       .  S
O98         C106   1.261       .  A
O99        Cr107   2.064       .  S
O99         C100   1.280       .  A
C100        O101   1.249       .  A
C100       C1466   1.492       .  S
O101       Cr108   1.940       .  S
O102       Cr108   2.039       .  S
O102        C103   1.279       .  A
C103        O104   1.258       .  A
C103       C1476   1.466       .  S
O104       Cr109   1.945       .  S
O105       Cr109   2.018       .  S
O105        C106   1.272       .  A
C106       C1619   1.475       .  S
Cr107       O110   1.739       .  S
Cr108       O110   1.768       .  S
Cr109       O110   1.756       .  S
O111       Cr129   2.005       .  S
O111        C119   1.267       .  A
O112       Cr129   1.942       .  S
O112        C113   1.236       .  A
C113        O114   1.272       .  A
C113       C1449   1.496       .  S
O114       Cr130   2.078       .  S
O115       Cr130   1.981       .  S
O115        C116   1.261       .  A
C116        O117   1.268       .  A
C116       C1426   1.488       .  S
O117       Cr131   2.011       .  S
O118       Cr131   1.975       .  S
O118        C119   1.256       .  A
C119       C1479   1.489       .  S
O120       Cr129   1.961       .  S
O120        C128   1.263       .  A
O121       Cr129   2.063       .  S
O121        C122   1.279       .  A
C122        O123   1.251       .  A
C122       C1439   1.497       .  S
O123       Cr130   1.949       .  S
O124       Cr130   2.035       .  S
O124        C125   1.278       .  A
C125        O126   1.258       .  A
C125       C3153   1.465       .  S
O126       Cr131   1.944       .  S
O127       Cr131   2.024       .  S
O127        C128   1.271       .  A
C128       C1579   1.488       .  S
Cr129       O132   1.740       .  S
Cr130       O132   1.767       .  S
Cr131       O132   1.760       .  S
O133      Cr1815   1.966       .  S
O133        C141   1.258       .  A
O134       Cr151   2.006   1_545  S
O134        C135   1.264       .  A
C135        O136   1.259       .  A
C135       C1399   1.477       .  S
O136       Cr152   1.972       .  S
O137       Cr152   2.065       .  S
O137        C138   1.277   1_554  A
C138       O1803   1.246       .  A
C138       C3100   1.488       .  S
O139      Cr1817   1.941       .  S
O139       C1802   1.244       .  A
O140      Cr1817   2.018   1_565  S
O140        C141   1.270       .  A
C141       C1406   1.473       .  S
O142       Cr151   2.018       .  S
O142        C150   1.269       .  A
O143       Cr151   1.945       .  S
O143        C144   1.258   1_565  A
C144        O145   1.279       .  A
C144       C1419   1.477   1_545  S
O145       Cr152   2.042       .  S
O146       Cr152   1.955       .  S
O146        C147   1.253       .  A
C147        O148   1.272       .  A
C147       C1496   1.489       .  S
O148       Cr153   2.039       .  S
O149       Cr153   1.968   1_565  S
O149        C150   1.261       .  A
C150       C1539   1.474       .  S
Cr151      O1797   1.970   1_554  S
Cr151       O154   1.762   1_565  S
Cr152       O154   1.763       .  S
Cr153      O1803   1.944   1_554  S
Cr153      O1804   2.013   1_544  S
Cr153       O154   1.748       .  S
O155       Cr173   1.966       .  S
O155        C163   1.257       .  A
O156       Cr173   2.005       .  S
O156        C157   1.265   1_565  A
C157        O158   1.258       .  A
C157       C1386   1.467       .  S
O158       Cr174   1.969       .  S
O159       Cr174   2.059       .  S
O159        C160   1.276       .  A
C160        O161   1.246       .  A
C160       C1469   1.482       .  S
O161       Cr175   1.943       .  S
O162       Cr175   2.011   1_565  S
O162        C163   1.267       .  A
C163       C1416   1.479       .  S
O164       Cr173   2.018       .  S
O164        C172   1.270       .  A
O165       Cr173   1.948       .  S
O165        C166   1.259   1_565  A
C166        O167   1.277       .  A
C166       C1409   1.486   1_545  S
O167       Cr174   2.035       .  S
O168       Cr174   1.960       .  S
O168        C169   1.254       .  A
C169        O170   1.271       .  A
C169       C1446   1.484       .  S
O170       Cr175   2.031       .  S
O171       Cr175   1.960   1_565  S
O171        C172   1.258       .  A
C172       C1519   1.472       .  S
Cr173       O176   1.766   1_565  S
Cr174       O176   1.764       .  S
Cr175       O176   1.751       .  S
O177      Cr1859   2.012   1_545  S
O177        C185   1.267       .  A
O178      Cr1859   1.945       .  S
O178        C179   1.246       .  A
C179       O1844   1.274       .  A
C179       C1379   1.478       .  S
O180       Cr196   2.048       .  S
O180       C1843   1.273   1_554  A
O181       Cr196   1.983       .  S
O181        C182   1.261   1_565  A
C182        O183   1.264       .  A
C182       C1569   1.485       .  S
O183       Cr197   2.008       .  S
O184      Cr1861   1.977       .  S
O184        C185   1.259       .  A
C185       C1356   1.482       .  S
O186       Cr195   1.964       .  S
O186        C194   1.260       .  A
O187       Cr195   2.047   1_565  S
O187        C188   1.274       .  A
C188        O189   1.257       .  A
C188       C1346   1.499       .  S
O189       Cr196   1.963       .  S
O190       Cr196   2.033       .  S
O190        C191   1.276   1_565  A
C191        O192   1.257       .  A
C191       C1369   1.468       .  S
O192       Cr197   1.948       .  S
O193       Cr197   2.012       .  S
O193        C194   1.268       .  A
C194       C1339   1.473       .  S
Cr195      O1841   2.010   1_554  S
Cr195      O1842   1.944   1_544  S
Cr195       O198   1.753       .  S
Cr196       O198   1.765   1_565  S
Cr197      O1848   1.968   1_554  S
Cr197       O198   1.768       .  S
O199       Cr217   2.010   1_545  S
O199        C207   1.270       .  A
O200       Cr217   1.945       .  S
O200        C201   1.243       .  A
C201        O202   1.278       .  A
C201       C1329   1.486       .  S
O202       Cr218   2.071       .  S
O203       Cr218   1.982       .  S
O203        C204   1.262   1_565  A
C204        O205   1.263       .  A
C204       C1609   1.480       .  S
O205       Cr219   2.003       .  S
O206       Cr219   1.976       .  S
O206        C207   1.258       .  A
C207       C1366   1.488       .  S
O208       Cr217   1.968   1_545  S
O208        C216   1.258       .  A
O209       Cr217   2.043       .  S
O209        C210   1.274       .  A
C210        O211   1.254       .  A
C210       C1316   1.487       .  S
O211       Cr218   1.956       .  S
O212       Cr218   2.041       .  S
O212        C213   1.280   1_565  A
C213        O214   1.260       .  A
C213       C1359   1.482       .  S
O214       Cr219   1.951       .  S
O215       Cr219   2.007       .  S
O215        C216   1.268       .  A
C216       C1306   1.476       .  S
Cr217       O220   1.753   1_565  S
Cr218       O220   1.763   1_565  S
Cr219       O220   1.764       .  S
O221       Cr239   1.974       .  S
O221        C229   1.257       .  A
O222       Cr239   2.013   1_455  S
O222        C223   1.267       .  A
C223        O224   1.262       .  A
C223       C1266   1.487       .  S
O224       Cr240   1.983       .  S
O225       Cr240   2.089       .  S
O225        C226   1.278       .  A
C226        O227   1.240       .  A
C226       C1349   1.504       .  S
O227       Cr241   1.940       .  S
O228       Cr241   2.012   1_655  S
O228        C229   1.271       .  A
C229       C1296   1.493       .  S
O230       Cr239   2.025       .  S
O230        C238   1.271       .  A
O231       Cr239   1.952       .  S
O231        C232   1.260   1_655  A
C232        O233   1.282       .  A
C232       C1289   1.486       .  S
O233       Cr240   2.058       .  S
O234       Cr240   1.940       .  S
O234        C235   1.249       .  A
C235        O236   1.278       .  A
C235       C1326   1.494       .  S
O236       Cr241   2.069       .  S
O237       Cr241   1.963   1_655  S
O237        C238   1.261       .  A
C238       C1279   1.479       .  S
Cr239       O242   1.762   1_655  S
Cr240       O242   1.760       .  S
Cr241       O242   1.751       .  S
O243       Cr261   2.001       .  S
O243        C251   1.261       .  A
O244       Cr261   2.007   1_455  S
O244        C245   1.265       .  A
C245        O246   1.260       .  A
C245       C1246   1.483       .  S
O246       Cr262   1.979       .  S
O247       Cr262   2.089       .  S
O247        C248   1.276       .  A
C248        O249   1.238       .  A
C248       C1319   1.497       .  S
O249       Cr263   1.942       .  S
O250       Cr263   1.999   1_655  S
O250        C251   1.263       .  A
C251       C1286   1.498       .  S
O252       Cr261   2.030       .  S
O252        C260   1.274       .  A
O253       Cr261   1.959       .  S
O253        C254   1.260   1_655  A
C254        O255   1.282       .  A
C254       C2963   1.483   1_455  S
O255       Cr262   2.051       .  S
O256       Cr262   1.944       .  S
O256        C257   1.249       .  A
C257        O258   1.275       .  A
C257       C1376   1.487       .  S
O258       Cr263   2.048       .  S
O259       Cr263   1.961   1_655  S
O259        C260   1.263       .  A
C260       C1256   1.482       .  S
Cr261       O264   1.758   1_655  S
Cr262       O264   1.766       .  S
Cr263       O264   1.742       .  S
O265       Cr283   2.010   1_455  S
O265        C273   1.269       .  A
O266       Cr283   1.941       .  S
O266        C267   1.241       .  A
C267        O268   1.276       .  A
C267       C1209   1.502       .  S
O268       Cr284   2.083       .  S
O269       Cr284   1.991       .  S
O269        C270   1.264       .  A
C270        O271   1.263   1_655  A
C270       C1196   1.488       .  S
O271       Cr285   2.000       .  S
O272       Cr285   1.978       .  S
O272        C273   1.258       .  A
C273       C1226   1.489       .  S
O274       Cr283   1.960   1_455  S
O274        C282   1.262       .  A
O275       Cr283   2.062       .  S
O275        C276   1.277       .  A
C276        O277   1.250       .  A
C276       C1239   1.497       .  S
O277       Cr284   1.949       .  S
O278       Cr284   2.043       .  S
O278        C279   1.280   1_655  A
C279        O280   1.259       .  A
C279       C1216   1.480       .  S
O280       Cr285   1.943       .  S
O281       Cr285   2.018       .  S
O281        C282   1.269       .  A
C282       C1336   1.480       .  S
Cr283       O286   1.744       .  S
Cr284       O286   1.763       .  S
Cr285       O286   1.761   1_455  S
O287       Cr305   2.009   1_455  S
O287        C295   1.265       .  A
O288       Cr305   1.940       .  S
O288        C289   1.237       .  A
C289        O290   1.271       .  A
C289       C1176   1.493       .  S
O290       Cr306   2.075       .  S
O291       Cr306   1.978       .  S
O291        C292   1.260       .  A
C292        O293   1.263   1_655  A
C292       C1166   1.482       .  S
O293       Cr307   2.002       .  S
O294       Cr307   1.986       .  S
O294        C295   1.259       .  A
C295       C1219   1.492       .  S
O296       Cr305   1.961   1_455  S
O296        C304   1.262       .  A
O297       Cr305   2.056       .  S
O297        C298   1.278       .  A
C298        O299   1.253       .  A
C298       C1189   1.495       .  S
O299       Cr306   1.952       .  S
O300       Cr306   2.044       .  S
O300        C301   1.279   1_655  A
C301        O302   1.257       .  A
C301       C1229   1.471       .  S
O302       Cr307   1.947       .  S
O303       Cr307   2.019       .  S
O303        C304   1.272       .  A
C304       C1309   1.472       .  S
Cr305       O308   1.743       .  S
Cr306       O308   1.771       .  S
Cr307       O308   1.759   1_455  S
O309       Cr327   1.968       .  S
O309        C317   1.257       .  A
O310       Cr327   2.001       .  S
O310        C311   1.262   1_565  A
C311        O312   1.260       .  A
C311       C1389   1.481       .  S
O312       Cr328   1.979       .  S
O313       Cr328   2.060       .  S
O313        C314   1.276       .  A
C314        O315   1.246       .  A
C314       C1186   1.484       .  S
O315       Cr329   1.946       .  S
O316       Cr329   2.009   1_565  S
O316        C317   1.267       .  A
C317       C1149   1.479       .  S
O318       Cr327   2.015       .  S
O318        C326   1.269       .  A
O319       Cr327   1.938       .  S
O319        C320   1.257   1_565  A
C320        O321   1.279       .  A
C320       C1159   1.473   1_545  S
O321       Cr328   2.040       .  S
O322       Cr328   1.967       .  S
O322        C323   1.257       .  A
C323        O324   1.272       .  A
C323       C1206   1.494       .  S
O324       Cr329   2.035       .  S
O325       Cr329   1.967   1_565  S
O325        C326   1.259       .  A
C326       C1276   1.483       .  S
Cr327       O330   1.767   1_565  S
Cr328       O330   1.765       .  S
Cr329       O330   1.750       .  S
O331      Cr2013   1.971   1_554  S
O331        C339   1.257       .  A
O332       Cr349   2.013       .  S
O332        C333   1.268   1_565  A
C333        O334   1.257       .  A
C333       C1396   1.486       .  S
O334       Cr350   1.973       .  S
O335       Cr350   2.060       .  S
O335       C2000   1.274       .  A
C336        O337   1.245       .  A
C336       O1999   1.278   1_554  A
C336       C1236   1.490       .  S
O337      Cr2015   1.946       .  S
O338      Cr2015   2.007   1_565  S
O338        C339   1.266       .  A
C339       C1156   1.478       .  S
O340       Cr349   2.025       .  S
O340        C348   1.272       .  A
O341       Cr349   1.936       .  S
O341        C342   1.256   1_565  A
C342        O343   1.278       .  A
C342       C1146   1.472   1_545  S
O343       Cr350   2.039       .  S
O344       Cr350   1.957       .  S
O344        C345   1.255       .  A
C345        O346   1.273       .  A
C345       C1179   1.486       .  S
O346       Cr351   2.037       .  S
O347       Cr351   1.963   1_565  S
O347        C348   1.258       .  A
C348       C1259   1.488       .  S
Cr349      O1995   1.960       .  S
Cr349       O352   1.764   1_565  S
Cr350       O352   1.765       .  S
Cr351      O2001   1.943       .  S
Cr351      O2002   2.010   1_545  S
Cr351       O352   1.748       .  S
O353       Cr371   2.002       .  S
O353        C361   1.267       .  A
O354       Cr371   1.947       .  S
O354        C355   1.247       .  A
C355        O356   1.276       .  A
C355       C1119   1.498       .  S
O356       Cr372   2.069       .  S
O357       Cr372   1.979       .  S
O357        C358   1.260       .  A
C358        O359   1.265       .  A
C358       C1459   1.477       .  S
O359       Cr373   1.999       .  S
O360       Cr373   1.981       .  S
O360        C361   1.258       .  A
C361       C1139   1.488       .  S
O362       Cr371   1.962       .  S
O362        C370   1.262       .  A
O363       Cr371   2.037       .  S
O363        C364   1.269       .  A
C364        O365   1.252       .  A
C364       C1106   1.485       .  S
O365       Cr372   1.948       .  S
O366       Cr372   2.039       .  S
O366        C367   1.278       .  A
C367        O368   1.257       .  A
C367       C1126   1.466       .  S
O368       Cr373   1.943       .  S
O369       Cr373   2.022       .  S
O369        C370   1.270       .  A
C370       C1099   1.489       .  S
Cr371       O374   1.748       .  S
Cr372       O374   1.764       .  S
Cr373       O374   1.761       .  S
O375       Cr393   2.009       .  S
O375        C383   1.268       .  A
O376       Cr393   1.943       .  S
O376        C377   1.243       .  A
C377        O378   1.273       .  A
C377       C1086   1.490       .  S
O378       Cr394   2.061       .  S
O379       Cr394   1.979       .  S
O379        C380   1.261       .  A
C380        O381   1.263       .  A
C380       C1429   1.488       .  S
O381       Cr395   2.007       .  S
O382       Cr395   1.979       .  S
O382        C383   1.258       .  A
C383       C1129   1.478       .  S
O384       Cr393   1.972       .  S
O384        C392   1.263       .  A
O385       Cr393   2.049       .  S
O385        C386   1.274       .  A
C386        O387   1.257       .  A
C386       C1076   1.501       .  S
O387       Cr394   1.962       .  S
O388       Cr394   2.034       .  S
O388        C389   1.277       .  A
C389        O390   1.258       .  A
C389       C1136   1.464       .  S
O390       Cr395   1.947       .  S
O391       Cr395   2.018       .  S
O391        C392   1.269       .  A
C392       C1066   1.487       .  S
Cr393       O396   1.747       .  S
Cr394       O396   1.764       .  S
Cr395       O396   1.762       .  S
O397       Cr415   1.970       .  S
O397        C405   1.256       .  A
O398       Cr415   2.004       .  S
O398        C399   1.265       .  A
C399        O400   1.261       .  A
C399       C1026   1.493       .  S
O400       Cr416   1.991       .  S
O401       Cr416   2.073       .  S
O401        C402   1.276       .  A
C402        O403   1.246       .  A
C402       C1079   1.500       .  S
O403       Cr417   1.944       .  S
O404       Cr417   2.006       .  S
O404        C405   1.266       .  A
C405       C1046   1.468       .  S
O406       Cr415   2.025       .  S
O406        C414   1.270       .  A
O407       Cr415   1.946       .  S
O407        C408   1.260       .  A
C408        O409   1.282       .  A
C408       C1059   1.487       .  S
O409       Cr416   2.049       .  S
O410       Cr416   1.964       .  S
O410        C411   1.257       .  A
C411        O412   1.271       .  A
C411       C1116   1.494       .  S
O412       Cr417   2.036       .  S
O413       Cr417   1.962       .  S
O413        C414   1.261       .  A
C414       C1036   1.478       .  S
Cr415       O418   1.765       .  S
Cr416       O418   1.763       .  S
Cr417       O418   1.749       .  S
O419      Cr2101   1.973   1_554  S
O419        C427   1.257       .  A
O420       Cr437   1.996       .  S
O420        C421   1.263       .  A
C421        O422   1.257       .  A
C421       C1006   1.465       .  S
O422       Cr438   1.971       .  S
O423       Cr438   2.062       .  S
O423       C2088   1.273       .  A
C424        O425   1.246       .  A
C424       O2087   1.272   1_554  A
C424       C1109   1.484       .  S
O425      Cr2103   1.946   1_554  S
O426      Cr2103   2.015   1_554  S
O426        C427   1.268       .  A
C427       C1056   1.479       .  S
O428       Cr437   2.020       .  S
O428        C436   1.271       .  A
O429       Cr437   1.936       .  S
O429        C430   1.258       .  A
C430        O431   1.278       .  A
C430       C1049   1.481       .  S
O431       Cr438   2.036       .  S
O432       Cr438   1.956       .  S
O432        C433   1.255       .  A
C433        O434   1.272       .  A
C433       C1089   1.493       .  S
O434       Cr439   2.044       .  S
O435       Cr439   1.974       .  S
O435        C436   1.262       .  A
C436       C1016   1.479       .  S
Cr437      O2083   1.966       .  S
Cr437       O440   1.759       .  S
Cr438       O440   1.767       .  S
Cr439      O2089   1.942       .  S
Cr439      O2090   2.016       .  S
Cr439       O440   1.747       .  S
O441      Cr2123   2.009       .  S
O441        C449   1.268       .  A
O442      Cr2123   1.945       .  S
O442        C443   1.242       .  A
C443       O2108   1.277       .  A
C443        C996   1.486       .  S
O444       Cr460   2.064       .  S
O444       C2107   1.274   1_554  A
O445       Cr460   1.978       .  S
O445        C446   1.258       .  A
C446        O447   1.267       .  A
C446        C959   1.492       .  S
O447       Cr461   2.011       .  S
O448      Cr2125   1.962       .  S
O448        C449   1.257       .  A
C449        C976   1.472       .  S
O450       Cr459   1.957       .  S
O450        C458   1.257       .  A
O451       Cr459   2.046       .  S
O451        C452   1.275       .  A
C452        O453   1.253       .  A
C452        C969   1.480       .  S
O453       Cr460   1.953       .  S
O454       Cr460   2.038       .  S
O454        C455   1.281       .  A
C455        O456   1.256       .  A
C455        C986   1.486       .  S
O456       Cr461   1.944       .  S
O457       Cr461   2.031       .  S
O457        C458   1.273       .  A
C458       C1096   1.488       .  S
Cr459      O2105   2.007   1_554  S
Cr459      O2106   1.941   1_554  S
Cr459       O462   1.746       .  S
Cr460       O462   1.764       .  S
Cr461      O2112   1.969   1_554  S
Cr461       O462   1.763       .  S
O463       Cr481   2.015       .  S
O463        C471   1.269       .  A
O464       Cr481   1.940       .  S
O464        C465   1.241       .  A
C465        O466   1.276       .  A
C465        C949   1.486       .  S
O466       Cr482   2.067       .  S
O467       Cr482   1.969       .  S
O467        C468   1.260       .  A
C468        O469   1.262       .  A
C468        C926   1.475       .  S
O469       Cr483   2.002       .  S
O470       Cr483   1.963       .  S
O470        C471   1.253       .  A
C471        C989   1.469       .  S
O472       Cr481   1.964       .  S
O472        C480   1.257       .  A
O473       Cr481   2.045       .  S
O473        C474   1.276       .  A
C474        O475   1.253       .  A
C474        C936   1.482       .  S
O475       Cr482   1.951       .  S
O476       Cr482   2.040       .  S
O476        C477   1.280       .  A
C477        O478   1.257       .  A
C477        C979   1.472       .  S
O478       Cr483   1.932       .  S
O479       Cr483   2.023       .  S
O479        C480   1.272       .  A
C480       C1069   1.490       .  S
Cr481       O484   1.749       .  S
Cr482       O484   1.766       .  S
Cr483       O484   1.766       .  S
O485       Cr503   1.973       .  S
O485        C493   1.258       .  A
O486       Cr503   2.017       .  S
O486        C487   1.268       .  A
C487        O488   1.257       .  A
C487       C1529   1.467       .  S
O488       Cr504   1.972       .  S
O489       Cr504   2.082       .  S
O489        C490   1.276       .  A
C490        O491   1.237       .  A
C490        C966   1.492       .  S
O491       Cr505   1.942       .  S
O492       Cr505   2.019       .  S
O492        C493   1.270       .  A
C493        C916   1.490       .  S
O494       Cr503   2.031       .  S
O494        C502   1.273       .  A
O495       Cr503   1.938       .  S
O495        C496   1.256       .  A
C496        O497   1.279       .  A
C496        C906   1.471       .  S
O497       Cr504   2.044       .  S
O498       Cr504   1.941       .  S
O498        C499   1.247       .  A
C499        O500   1.279       .  A
C499        C946   1.491       .  S
O500       Cr505   2.068       .  S
O501       Cr505   1.953       .  S
O501        C502   1.260       .  A
C502       C1039   1.472       .  S
Cr503       O506   1.761       .  S
Cr504       O506   1.766       .  S
Cr505       O506   1.743       .  S
O507       Cr525   1.987       .  S
O507        C515   1.256       .  A
O508       Cr525   2.000       .  S
O508        C509   1.261       .  A
C509        O510   1.263       .  A
C509       C1509   1.485       .  S
O510       Cr526   1.986       .  S
O511       Cr526   2.095       .  S
O511        C512   1.278       .  A
C512        O513   1.234       .  A
C512        C939   1.497       .  S
O513       Cr527   1.944       .  S
O514       Cr527   2.005       .  S
O514        C515   1.268       .  A
C515        C909   1.491       .  S
O516       Cr525   2.029       .  S
O516        C524   1.274       .  A
O517       Cr525   1.936       .  S
O517        C518   1.255       .  A
C518        O519   1.282       .  A
C518       C2583   1.467       .  S
O519       Cr526   2.050       .  S
O520       Cr526   1.944       .  S
O520        C521   1.249       .  A
C521        O522   1.278       .  A
C521        C999   1.496       .  S
O522       Cr527   2.072       .  S
O523       Cr527   1.964       .  S
O523        C524   1.262       .  A
C524       C1019   1.477       .  S
Cr525       O528   1.763       .  S
Cr526       O528   1.761       .  S
Cr527       O528   1.744       .  S
O529       Cr547   2.001   1_455  S
O529        C537   1.264       .  A
O530       Cr547   1.947       .  S
O530        C531   1.240       .  A
C531        O532   1.270       .  A
C531        C899   1.490       .  S
O532       Cr548   2.067       .  S
O533       Cr548   1.972       .  S
O533        C534   1.259       .  A
C534        O535   1.269   1_655  A
C534       C1199   1.474       .  S
O535       Cr549   2.015       .  S
O536       Cr549   1.966       .  S
O536        C537   1.254       .  A
C537        C886   1.470       .  S
O538       Cr547   1.955   1_455  S
O538        C546   1.261       .  A
O539       Cr547   2.054       .  S
O539        C540   1.276       .  A
C540        O541   1.255       .  A
C540        C866   1.488       .  S
O541       Cr548   1.953       .  S
O542       Cr548   2.034       .  S
O542        C543   1.277   1_655  A
C543        O544   1.258       .  A
C543        C876   1.477       .  S
O544       Cr549   1.952       .  S
O545       Cr549   2.028       .  S
O545        C546   1.273       .  A
C546        C856   1.484       .  S
Cr547       O550   1.745       .  S
Cr548       O550   1.769       .  S
Cr549       O550   1.761   1_455  S
O551       Cr569   2.008   1_455  S
O551        C559   1.265       .  A
O552       Cr569   1.944       .  S
O552        C553   1.235       .  A
C553        O554   1.272       .  A
C553        C846   1.487       .  S
O554       Cr570   2.076       .  S
O555       Cr570   1.981       .  S
O555        C556   1.259       .  A
C556        O557   1.266   1_655  A
C556       C1169   1.485       .  S
O557       Cr571   2.003       .  S
O558       Cr571   1.980       .  S
O558        C559   1.259       .  A
C559        C879   1.484       .  S
O560       Cr569   1.970   1_455  S
O560        C568   1.264       .  A
O561       Cr569   2.068       .  S
O561        C562   1.277       .  A
C562        O563   1.253       .  A
C562        C836   1.496       .  S
O563       Cr570   1.948       .  S
O564       Cr570   2.045       .  S
O564        C565   1.281   1_655  A
C565        O566   1.259       .  A
C565       C2553   1.481       .  S
O566       Cr571   1.940       .  S
O567       Cr571   2.023       .  S
O567        C568   1.272       .  A
C568        C826   1.479       .  S
Cr569       O572   1.741       .  S
Cr570       O572   1.769       .  S
Cr571       O572   1.756   1_455  S
O573      Cr2255   1.973       .  S
O573        C581   1.257       .  A
O574       Cr591   1.993       .  S
O574        C575   1.259       .  A
C575        O576   1.260       .  A
C575       C1009   1.480       .  S
O576       Cr592   1.979       .  S
O577       Cr592   2.061       .  S
O577       C2242   1.275   1_554  A
C578        O579   1.249       .  A
C578       O2241   1.277       .  A
C578        C839   1.487       .  S
O579      Cr2257   1.954       .  S
O580      Cr2257   2.008       .  S
O580        C581   1.269       .  A
C581        C806   1.488       .  S
O582       Cr591   2.018       .  S
O582        C590   1.269       .  A
O583       Cr591   1.935       .  S
O583        C584   1.257       .  A
C584        O585   1.279       .  A
C584        C819   1.472       .  S
O585       Cr592   2.039       .  S
O586       Cr592   1.955       .  S
O586        C587   1.254       .  A
C587        O588   1.273       .  A
C587        C896   1.482       .  S
O588       Cr593   2.033       .  S
O589       Cr593   1.967       .  S
O589        C590   1.260       .  A
C590        C799   1.476       .  S
Cr591      O2237   1.975   1_554  S
Cr591       O594   1.765       .  S
Cr592       O594   1.765       .  S
Cr593      O2243   1.949   1_554  S
Cr593      O2244   2.010   1_554  S
Cr593       O594   1.746       .  S
O595       Cr613   1.956       .  S
O595        C603   1.256       .  A
O596       Cr613   2.014       .  S
O596        C597   1.267       .  A
C597        O598   1.261       .  A
C597       C1029   1.489       .  S
O598       Cr614   1.980       .  S
O599       Cr614   2.061       .  S
O599        C600   1.273       .  A
C600        O601   1.246       .  A
C600        C869   1.483       .  S
O601       Cr615   1.950       .  S
O602       Cr615   2.012       .  S
O602        C603   1.269       .  A
C603        C816   1.472       .  S
O604       Cr613   2.020       .  S
O604        C612   1.270       .  A
O605       Cr613   1.948       .  S
O605        C606   1.257       .  A
C606        O607   1.277       .  A
C606        C809   1.469       .  S
O607       Cr614   2.038       .  S
O608       Cr614   1.948       .  S
O608        C609   1.253       .  A
C609        O610   1.274       .  A
C609        C849   1.474       .  S
O610       Cr615   2.037       .  S
O611       Cr615   1.959       .  S
O611        C612   1.256       .  A
C612        C786   1.475       .  S
Cr613       O616   1.762       .  S
Cr614       O616   1.765       .  S
Cr615       O616   1.752       .  S
O617       Cr635   2.008       .  S
O617        C625   1.267       .  A
O618       Cr635   1.939       .  S
O618        C619   1.238       .  A
C619        O620   1.275       .  A
C619        C776   1.494       .  S
O620       Cr636   2.082       .  S
O621       Cr636   1.965       .  S
O621        C622   1.256       .  A
C622        O623   1.267       .  A
C622        C929   1.484       .  S
O623       Cr637   2.007       .  S
O624       Cr637   1.986       .  S
O624        C625   1.256       .  A
C625        C756   1.498       .  S
O626       Cr635   1.955       .  S
O626        C634   1.259       .  A
O627       Cr635   2.052       .  S
O627        C628   1.276       .  A
C628        O629   1.250       .  A
C628        C746   1.492       .  S
O629       Cr636   1.949       .  S
O630       Cr636   2.045       .  S
O630        C631   1.280       .  A
C631        O632   1.258       .  A
C631        C769   1.485       .  S
O632       Cr637   1.941       .  S
O633       Cr637   2.030       .  S
O633        C634   1.275       .  A
C634        C859   1.479       .  S
Cr635       O638   1.741       .  S
Cr636       O638   1.762       .  S
Cr637       O638   1.760       .  S
O639      Cr2321   2.013   1_554  S
O639        C647   1.268       .  A
O640      Cr2321   1.939   1_554  S
O640        C641   1.234       .  A
C641       O2306   1.274   1_554  A
C641        C736   1.497       .  S
O642       Cr658   2.095       .  S
O642       C2305   1.277       .  A
O643       Cr658   1.985       .  S
O643        C644   1.264       .  A
C644        O645   1.264       .  A
C644        C956   1.490       .  S
O645       Cr659   2.005       .  S
O646      Cr2323   1.963   1_554  S
O646        C647   1.254       .  A
C647        C766   1.476       .  S
O648       Cr657   1.965       .  S
O648        C656   1.262       .  A
O649       Cr657   2.075       .  S
O649        C650   1.281       .  A
C650        O651   1.247       .  A
C650        C729   1.495       .  S
O651       Cr658   1.937       .  S
O652       Cr658   2.049       .  S
O652        C653   1.281       .  A
C653        O654   1.260       .  A
C653        C759   1.479       .  S
O654       Cr659   1.953       .  S
O655       Cr659   2.022       .  S
O655        C656   1.271       .  A
C656        C829   1.474       .  S
Cr657      O2303   2.014       .  S
Cr657      O2304   1.942       .  S
Cr657       O660   1.745       .  S
Cr658       O660   1.763       .  S
Cr659      O2310   1.980       .  S
Cr659       O660   1.762       .  S
O661       Cr679   1.972       .  S
O661        C669   1.257       .  A
O662       Cr679   2.005   1_455  S
O662        C663   1.264       .  A
C663        O664   1.260       .  A
C663       C1269   1.472       .  S
O664       Cr680   1.983       .  S
O665       Cr680   2.059       .  S
O665        C666   1.276       .  A
C666        O667   1.245       .  A
C666        C749   1.485       .  S
O667       Cr681   1.942       .  S
O668       Cr681   2.015   1_655  S
O668        C669   1.269       .  A
C669        C719   1.482       .  S
O670       Cr679   2.028       .  S
O670        C678   1.270       .  A
O671       Cr679   1.946       .  S
O671        C672   1.259   1_655  A
C672        O673   1.277       .  A
C672        C706   1.478   1_455  S
O673       Cr680   2.036       .  S
O674       Cr680   1.961       .  S
O674        C675   1.253       .  A
C675        O676   1.274       .  A
C675        C739   1.492       .  S
O676       Cr681   2.042       .  S
O677       Cr681   1.966   1_655  S
O677        C678   1.260       .  A
C678        C796   1.487       .  S
Cr679       O682   1.767   1_655  S
Cr680       O682   1.769       .  S
Cr681       O682   1.753       .  S
O683       Cr701   1.969       .  S
O683        C691   1.258       .  A
O684       Cr701   2.002   1_455  S
O684        C685   1.265       .  A
C685        O686   1.259       .  A
C685       C1249   1.489       .  S
O686       Cr702   1.984       .  S
O687       Cr702   2.070       .  S
O687        C688   1.278       .  A
C688        O689   1.244       .  A
C688        C726   1.487       .  S
O689       Cr703   1.945       .  S
O690       Cr703   2.006   1_655  S
O690        C691   1.266       .  A
C691        C709   1.473       .  S
O692       Cr701   2.014       .  S
O692        C700   1.268       .  A
O693       Cr701   1.940       .  S
O693        C694   1.257   1_655  A
C694        O695   1.282       .  A
C694        C716   1.485       .  S
O695       Cr702   2.053       .  S
O696       Cr702   1.955       .  S
O696        C697   1.254       .  A
C697        O698   1.272       .  A
C697        C779   1.486       .  S
O698       Cr703   2.037       .  S
O699       Cr703   1.965       .  S
O699        C700   1.261   1_455  A
C700        C789   1.482       .  S
Cr701       O704   1.759   1_655  S
Cr702       O704   1.762       .  S
Cr703       O704   1.750       .  S
C705        C710   1.393       .  A
C705       C2370   1.408   1_655  A
C705       H2376   1.084       .  S
C706       C2369   1.409   1_554  A
C706       C2371   1.407   1_654  A
C707        C708   1.399       .  A
C707       C2370   1.408       .  A
C707      Br2378   1.920       .  S
C708        C709   1.408   1_455  A
C708        H713   1.084       .  S
C709        C710   1.406       .  A
C710       Br711   1.921       .  S
H712       C2369   1.084   1_554  S
Br714      C2371   1.918       .  S
C715        C716   1.412   1_655  A
C715        C720   1.398       .  A
C715        H722   1.084       .  S
C716        C717   1.407       .  A
C717        C718   1.403       .  A
C717       Br724   1.918       .  S
C718        C719   1.411   1_455  A
C718        H723   1.082       .  S
C719        C720   1.406       .  A
C720       Br721   1.921       .  S
C725        C726   1.400       .  A
C725        C730   1.402       .  A
C725        H732   1.083       .  S
C726        C727   1.417       .  A
C727        C728   1.403       .  A
C727       Br734   1.920       .  S
C728        C729   1.404       .  A
C728        H733   1.083       .  S
C729        C730   1.425       .  A
C730       Br731   1.925       .  S
C735        C736   1.402       .  A
C735        C740   1.406       .  A
C735        H742   1.083       .  S
C736        C737   1.430       .  A
C737        C738   1.396       .  A
C737       Br744   1.928       .  S
C738        C739   1.396       .  A
C738        H743   1.084       .  S
C739        C740   1.422       .  A
C740       Br741   1.921       .  S
C745        C746   1.404       .  A
C745        C750   1.398       .  A
C745        H752   1.083       .  S
C746        C747   1.423       .  A
C747        C748   1.402       .  A
C747       Br754   1.924       .  S
C748        C749   1.403       .  A
C748        H753   1.083       .  S
C749        C750   1.416       .  A
C750       Br751   1.920       .  S
C755        C756   1.405       .  A
C755        C760   1.398       .  A
C755        H762   1.083       .  S
C756        C757   1.425       .  A
C757        C758   1.406       .  A
C757       Br764   1.916       .  S
C758        C759   1.398       .  A
C758        H763   1.083       .  S
C759        C760   1.411       .  A
C760       Br761   1.920       .  S
C765        C766   1.410       .  A
C765        C770   1.402       .  A
C765        H772   1.084       .  S
C766        C767   1.402       .  A
C767        C768   1.396       .  A
C767       Br774   1.920       .  S
C768        C769   1.413       .  A
C768        H773   1.084       .  S
C769        C770   1.408       .  A
C770       Br771   1.919       .  S
C775        C776   1.418       .  A
C775        C780   1.393       .  A
C775        H782   1.083       .  S
C776        C777   1.406       .  A
C777        C778   1.405       .  A
C777       Br784   1.917       .  S
C778        C779   1.415       .  A
C778        H783   1.083       .  S
C779        C780   1.404       .  A
C780       Br781   1.924       .  S
C785        C786   1.402       .  A
C785        C790   1.398       .  A
C785        H792   1.084       .  S
C786        C787   1.411       .  A
C787        C788   1.395       .  A
C787       Br794   1.922       .  S
C788        C789   1.406       .  A
C788        H793   1.084       .  S
C789        C790   1.415       .  A
C790       Br791   1.922       .  S
C795        C796   1.407       .  A
C795        C800   1.395       .  A
C795        H802   1.084       .  S
C796        C797   1.415       .  A
C797        C798   1.404       .  A
C797       Br804   1.920       .  S
C798        C799   1.404       .  A
C798        H803   1.084       .  S
C799        C800   1.407       .  A
C800       Br801   1.922       .  S
C805        C806   1.405       .  A
C805        C810   1.393       .  A
C805        H812   1.083       .  S
C806        C807   1.422       .  A
C807        C808   1.403       .  A
C807       Br814   1.922       .  S
C808        C809   1.398       .  A
C808        H813   1.083       .  S
C809        C810   1.408       .  A
C810       Br811   1.921       .  S
C815        C816   1.410       .  A
C815        C820   1.398       .  A
C815        H822   1.084       .  S
C816        C817   1.404       .  A
C817        C818   1.393       .  A
C817       Br824   1.920       .  S
C818        C819   1.409       .  A
C818        H823   1.084       .  S
C819        C820   1.404       .  A
C820       Br821   1.918       .  S
C825        C826   1.405       .  A
C825        C830   1.398       .  A
C825        H832   1.084       .  S
C826        C827   1.413       .  A
C827        C828   1.401       .  A
C827       Br834   1.921       .  S
C828        C829   1.403       .  A
C828        H833   1.084       .  S
C829        C830   1.408       .  A
C830       Br831   1.920       .  S
C835        C836   1.408       .  A
C835        C840   1.407       .  A
C835        H842   1.083       .  S
C836        C837   1.419       .  A
C837       C2502   1.403       .  A
C837      Br2508   1.923       .  S
C838       C2501   1.403   1_554  A
C838       C2503   1.404   1_554  A
C838        H843   1.082       .  S
C839        C840   1.414       .  A
C839       C2502   1.403       .  A
C840       Br841   1.920       .  S
Br844      C2501   1.922   1_554  S
C845        C846   1.418       .  A
C845        C850   1.390       .  A
C845        H852   1.083       .  S
C846        C847   1.403       .  A
C847        C848   1.403       .  A
C847       Br854   1.916       .  S
C848        C849   1.414       .  A
C848        H853   1.083       .  S
C849        C850   1.398       .  A
C850       Br851   1.922       .  S
C855        C856   1.405       .  A
C855        C860   1.393       .  A
C855        H862   1.084       .  S
C856        C857   1.414       .  A
C857        C858   1.402       .  A
C857       Br864   1.921       .  S
C858        C859   1.405       .  A
C858        H863   1.084       .  S
C859        C860   1.412       .  A
C860       Br861   1.924       .  S
C865        C866   1.406       .  A
C865        C870   1.402       .  A
C865        H872   1.081       .  S
C866        C867   1.414       .  A
C867        C868   1.402       .  A
C867       Br874   1.923       .  S
C868        C869   1.405       .  A
C868        H873   1.081       .  S
C869        C870   1.412       .  A
C870       Br871   1.920       .  S
C875        C876   1.407       .  A
C875        C880   1.398       .  A
C875        H882   1.084       .  S
C876        C877   1.405       .  A
C877        C878   1.402       .  A
C877       Br884   1.918   1_455  S
C878        C879   1.411       .  A
C878        H883   1.084       .  S
C879        C880   1.411       .  A
C880       Br881   1.922       .  S
C885        C886   1.410       .  A
C885        C890   1.400       .  A
C885        H892   1.083       .  S
C886        C887   1.404       .  A
C887        C888   1.390       .  A
C887       Br894   1.922       .  S
C888        C889   1.408       .  A
C888        H893   1.084   1_554  S
C889       C2229   1.470   1_554  S
C889        C890   1.405       .  A
C890       Br891   1.919   1_455  S
C895        C896   1.415       .  A
C895        C900   1.406       .  A
C895        H902   1.083       .  S
C896        C897   1.402       .  A
C897        C898   1.391       .  A
C897       Br904   1.923       .  S
C898        C899   1.415       .  A
C898        H903   1.083       .  S
C899        C900   1.408       .  A
C900       Br901   1.918       .  S
C905        C906   1.396       .  A
C905        C910   1.406       .  A
C905        H912   1.084       .  S
C906        C907   1.410       .  A
C907        C908   1.389       .  A
C907       Br914   1.916       .  S
C908        C909   1.400       .  A
C908        H913   1.083       .  S
C909        C910   1.425       .  A
C910       Br911   1.908       .  S
C915        C916   1.404       .  A
C915        C920   1.396       .  A
C915        H922   1.081       .  S
C916        C917   1.418       .  A
C917        C918   1.406       .  A
C917       Br924   1.923       .  S
C918        C919   1.401       .  A
C918        H923   1.083       .  S
C919       C2182   1.475   1_554  S
C919        C920   1.409       .  A
C920       Br921   1.921   1_554  S
C925        C926   1.401       .  A
C925        C930   1.396       .  A
C925        H932   1.083       .  S
C926        C927   1.411       .  A
C927        C928   1.395       .  A
C927       Br934   1.921       .  S
C928        C929   1.407       .  A
C928        H933   1.083       .  S
C929        C930   1.417       .  A
C930       Br931   1.923       .  S
C935        C936   1.387       .  A
C935        C940   1.392       .  A
C935        H942   1.085       .  S
C936        C937   1.420       .  A
C937        C938   1.409       .  A
C937       Br944   1.919       .  S
C938        C939   1.402       .  A
C938        H943   1.083       .  S
C939        C940   1.432       .  A
C940       Br941   1.923       .  S
C945        C946   1.402       .  A
C945        C950   1.399       .  A
C945        H952   1.084       .  S
C946        C947   1.423       .  A
C947        C948   1.402       .  A
C947       Br954   1.924       .  S
C948        C949   1.402       .  A
C948        H953   1.083       .  S
C949        C950   1.418       .  A
C950       Br951   1.918       .  S
C955        C960   1.402   1_556  A
C955       C2620   1.404       .  A
C955        H962   1.084       .  S
C956        C957   1.421       .  A
C956       C2619   1.408       .  A
C957        C958   1.399       .  A
C957       Br964   1.924       .  S
C958       C2623   1.400       .  A
C958        H963   1.084       .  S
C959        C960   1.418       .  A
C959       C2622   1.408       .  A
C960       Br961   1.923       .  S
C965        C966   1.400       .  A
C965        C970   1.406       .  A
C965        H972   1.083       .  S
C966        C967   1.430       .  A
C967        C968   1.394       .  A
C967       Br974   1.922       .  S
C968        C969   1.389       .  A
C968        H973   1.084       .  S
C969        C970   1.419       .  A
C970       Br971   1.919       .  S
C975        C976   1.410       .  A
C975        C980   1.399       .  A
C975        H982   1.084       .  S
C976        C977   1.405       .  A
C977        C978   1.393       .  A
C977       Br984   1.921       .  S
C978        C979   1.409       .  A
C978        H983   1.084       .  S
C979        C980   1.405       .  A
C980       Br981   1.918       .  S
C985        C986   1.399       .  A
C985        C990   1.396       .  A
C985        H992   1.084       .  S
C986        C987   1.424       .  A
C987        C988   1.395       .  A
C987       Br994   1.913       .  S
C988        C989   1.391       .  A
C988        H993   1.084       .  S
C989        C990   1.414       .  A
C990       Br991   1.912       .  S
C995        C996   1.400       .  A
C995       C1000   1.400       .  A
C995       H2666   1.082       .  S
C996        C997   1.417       .  A
C997        C998   1.406       .  A
C997      Br1004   1.920       .  S
C998        C999   1.406       .  A
C998       H1003   1.083       .  S
C999       C1000   1.422       .  A
C1000     Br1001   1.922       .  S
H1002      C2659   1.083   1_554  S
C1005      C1010   1.391       .  A
C1005      C2670   1.399   1_554  A
C1005      H1012   1.084       .  S
C1006      C1007   1.405       .  A
C1006      C2669   1.398       .  A
C1007      C1008   1.399       .  A
C1007     Br1014   1.919       .  S
C1008      C2673   1.409       .  A
C1008      H1013   1.083       .  S
C1009      C1010   1.418       .  A
C1009      C2672   1.407       .  A
C1010     Br1011   1.925       .  S
C1015      C1016   1.404       .  A
C1015      C1020   1.400       .  A
C1015      H1022   1.084       .  S
C1016      C1017   1.412       .  A
C1017      C1018   1.399       .  A
C1017     Br1024   1.921       .  S
C1018      C1019   1.403       .  A
C1018      H1023   1.084       .  S
C1019      C1020   1.411       .  A
C1020     Br1021   1.917       .  S
C1025      C1026   1.407       .  A
C1025      C1030   1.398       .  A
C1025      H1032   1.083       .  S
C1026      C1027   1.415       .  A
C1027      C1028   1.404       .  A
C1027     Br1034   1.921       .  S
C1028      C1029   1.407       .  A
C1028      H1033   1.083       .  S
C1029      C1030   1.413       .  A
C1030     Br1031   1.923       .  S
C1035      C1036   1.403       .  A
C1035      C1040   1.393       .  A
C1035      H1042   1.084       .  S
C1036      C1037   1.414       .  A
C1037      C1038   1.403       .  A
C1037     Br1044   1.920       .  S
C1038      C1039   1.403       .  A
C1038      H1043   1.083       .  S
C1039      C1040   1.409       .  A
C1040     Br1041   1.921       .  S
C1045      C1046   1.407       .  A
C1045      C1050   1.401       .  A
C1045      H1052   1.084       .  S
C1046      C1047   1.400       .  A
C1047      C1048   1.392       .  A
C1047     Br1054   1.919       .  S
C1048      C1049   1.412       .  A
C1048      H1053   1.084       .  S
C1049      C1050   1.410       .  A
C1050     Br1051   1.920       .  S
C1055      C1056   1.409       .  A
C1055      C1060   1.403       .  A
C1055      H1062   1.084       .  S
C1056      C1057   1.404       .  A
C1057      C1058   1.398       .  A
C1057     Br1064   1.920       .  S
C1058      C1059   1.413       .  A
C1058      H1063   1.084       .  S
C1059      C1060   1.409       .  A
C1060     Br1061   1.918       .  S
C1065      C1066   1.405       .  A
C1065      C1070   1.399       .  A
C1065      H1072   1.083       .  S
C1066      C1067   1.415       .  A
C1067      C1068   1.399       .  A
C1067     Br1074   1.922       .  S
C1068      C1069   1.406       .  A
C1068      H1073   1.083       .  S
C1069      C1070   1.419       .  A
C1070     Br1071   1.925       .  S
C1075      C1076   1.415       .  A
C1075      C1080   1.406       .  A
C1075      H1082   1.083       .  S
C1076      C1077   1.413       .  A
C1077      C1078   1.401       .  A
C1077     Br1084   1.922       .  S
C1078      C1079   1.414       .  A
C1078      H1083   1.084       .  S
C1079      C1080   1.411       .  A
C1080     Br1081   1.919       .  S
C1085      C1086   1.413       .  A
C1085      C1090   1.397       .  A
C1085      H1092   1.084       .  S
C1086      C1087   1.409       .  A
C1087      C1088   1.402       .  A
C1087     Br1094   1.920       .  S
C1088      C1089   1.415       .  A
C1088      H1093   1.083       .  S
C1089      C1090   1.411       .  A
C1090     Br1091   1.923       .  S
C1095      C1096   1.407       .  A
C1095      C1100   1.402       .  A
C1095      H1102   1.083       .  S
C1096      C1097   1.416       .  A
C1097      C1098   1.394       .  A
C1097     Br1104   1.925       .  S
C1098      C1099   1.406       .  A
C1098      H1103   1.083       .  S
C1099      C1100   1.416       .  A
C1100     Br1101   1.922       .  S
C1105      C1106   1.413       .  A
C1105      C1110   1.397       .  A
C1105      H1112   1.083       .  S
C1106      C1107   1.410       .  A
C1107      C1108   1.396       .  A
C1107     Br2778   1.923       .  S
C1108      C1109   1.413       .  A
C1108      H2777   1.084       .  S
C1109      C1110   1.408       .  A
C1110     Br1111   1.921   1_554  S
H1113      C2772   1.084       .  S
Br1114     C2771   1.924       .  S
C1115      C1116   1.414       .  A
C1115      C1120   1.406       .  A
C1115      H1122   1.083       .  S
C1116      C1117   1.411       .  A
C1117      C1118   1.398       .  A
C1117     Br1124   1.923       .  S
C1118      C1119   1.414       .  A
C1118      H1123   1.084       .  S
C1119      C1120   1.411       .  A
C1120     Br1121   1.919       .  S
C1125      C1130   1.399       .  A
C1125      C2790   1.398       .  A
C1125      H1132   1.084       .  S
C1126      C2789   1.397   1_554  A
C1126      C2791   1.407   1_554  A
C1127      C1128   1.395       .  A
C1127      C2790   1.418       .  A
C1127     Br2798   1.913       .  S
C1128      C1129   1.397       .  A
C1128      H1133   1.084       .  S
C1129      C1130   1.416       .  A
C1130     Br1131   1.910       .  S
Br1134     C2791   1.918   1_554  S
C1135      C1136   1.395       .  A
C1135      C1140   1.400       .  A
C1135      H1142   1.084       .  S
C1136      C1137   1.406       .  A
C1137      C1138   1.393       .  A
C1137     Br1144   1.921       .  S
C1138      C1139   1.407       .  A
C1138      H1143   1.083       .  S
C1139      C1140   1.421       .  A
C1140     Br1141   1.912       .  S
C1145      C1146   1.407       .  A
C1145      C1150   1.394       .  A
C1145      H1152   1.084       .  S
C1146      C1147   1.403   1_565  A
C1147      C1148   1.401   1_545  A
C1147     Br1154   1.918       .  S
C1148      C1149   1.412       .  A
C1148      H1153   1.083   1_565  S
C1149      C1150   1.409       .  A
C1150     Br1151   1.922       .  S
C1155      C1156   1.411       .  A
C1155      C1160   1.401   1_565  A
C1155      H1162   1.082   1_565  S
C1156      C1157   1.408       .  A
C1157      C1158   1.394       .  A
C1157     Br1164   1.921       .  S
C1158      C1159   1.407       .  A
C1158      H1163   1.084       .  S
C1159      C1160   1.404   1_565  A
C1160     Br1161   1.919       .  S
C1165      C1166   1.406       .  A
C1165      C1170   1.400       .  A
C1165      H1172   1.083       .  S
C1166      C1167   1.413   1_655  A
C1167      C1168   1.395       .  A
C1167     Br1174   1.924       .  S
C1168      C1169   1.406   1_455  A
C1168      H1173   1.083       .  S
C1169      C1170   1.414       .  A
C1170     Br1171   1.921       .  S
C1175      C1176   1.416       .  A
C1175      C1180   1.391       .  A
C1175      H1182   1.083       .  S
C1176      C1177   1.408       .  A
C1177      C1178   1.407       .  A
C1177     Br1184   1.919       .  S
C1178      C1179   1.416       .  A
C1178      H1183   1.083       .  S
C1179      C1180   1.404       .  A
C1180     Br1181   1.924       .  S
C1185      C1186   1.403       .  A
C1185      C1190   1.404       .  A
C1185      H1192   1.083       .  S
C1186      C1187   1.414       .  A
C1187      C1188   1.399       .  A
C1187     Br1194   1.921       .  S
C1188      C1189   1.405       .  A
C1188      H1193   1.083       .  S
C1189      C1190   1.423       .  A
C1190     Br1191   1.923       .  S
C1195      C1196   1.407       .  A
C1195      C1200   1.401       .  A
C1195      H1202   1.083       .  S
C1196      C1197   1.419   1_655  A
C1197      C1198   1.399       .  A
C1197     Br1204   1.924       .  S
C1198      C1199   1.400   1_455  A
C1198      H1203   1.084       .  S
C1199      C1200   1.407       .  A
C1200     Br1201   1.918       .  S
C1205      C1206   1.416       .  A
C1205      C1210   1.410       .  A
C1205      H1212   1.083       .  S
C1206      C1207   1.407       .  A
C1207      C1208   1.395       .  A
C1207     Br1214   1.924       .  S
C1208      C1209   1.416       .  A
C1208      H1213   1.083       .  S
C1209      C1210   1.410       .  A
C1210     Br1211   1.917       .  S
C1215      C1220   1.400       .  A
C1215      C2880   1.408       .  A
C1215      H2886   1.084       .  S
C1216      C2879   1.410   1_554  A
C1216      C2881   1.405   1_454  A
C1217      C1218   1.406       .  A
C1217      C2880   1.406       .  A
C1217     Br1224   1.917   1_455  S
C1218      C1219   1.413       .  A
C1218      H1223   1.083       .  S
C1219      C1220   1.412       .  A
C1220     Br1221   1.922       .  S
H1222      C2879   1.084   1_554  S
C1225      C1226   1.404       .  A
C1225      C1230   1.391       .  A
C1225      H1232   1.083       .  S
C1226      C1227   1.421       .  A
C1227      C1228   1.407       .  A
C1227     Br1234   1.922       .  S
C1228      C1229   1.401       .  A
C1228      H1233   1.083       .  S
C1229      C1230   1.407       .  A
C1230     Br1231   1.919       .  S
C1235      C1236   1.403       .  A
C1235      C1240   1.404       .  A
C1235      H2906   1.083   1_554  S
C1236      C1237   1.418       .  A
C1237      C1238   1.403       .  A
C1237     Br1244   1.922       .  S
C1238      C1239   1.405       .  A
C1238      H1243   1.083       .  S
C1239      C1240   1.424       .  A
C1240     Br1241   1.925       .  S
H1242      C2899   1.083       .  S
C1245      C1246   1.406       .  A
C1245      C1250   1.402       .  A
C1245      H1252   1.084       .  S
C1246      C1247   1.412       .  A
C1247      C1248   1.395       .  A
C1247     Br1254   1.923   1_455  S
C1248      C1249   1.406       .  A
C1248      H1253   1.083   1_455  S
C1249      C1250   1.416       .  A
C1250     Br1251   1.921       .  S
C1255      C1256   1.403       .  A
C1255      C1260   1.397       .  A
C1255      H1262   1.084       .  S
C1256      C1257   1.412       .  A
C1257      C1258   1.401       .  A
C1257     Br1264   1.919       .  S
C1258      C1259   1.407       .  A
C1258      H1263   1.083       .  S
C1259      C1260   1.418       .  A
C1260     Br1261   1.924       .  S
C1265      C1266   1.409       .  A
C1265      C1270   1.403       .  A
C1265      H1272   1.084       .  S
C1266      C1267   1.416       .  A
C1267      C1268   1.398       .  A
C1267     Br1274   1.920   1_455  S
C1268      C1269   1.399       .  A
C1268      H1273   1.083   1_455  S
C1269      C1270   1.406       .  A
C1270     Br1271   1.917       .  S
C1275      C1276   1.406       .  A
C1275      C1280   1.399       .  A
C1275      H1282   1.083       .  S
C1276      C1277   1.415       .  A
C1277      C1278   1.397       .  A
C1277     Br1284   1.925       .  S
C1278      C1279   1.404       .  A
C1278      H1283   1.084       .  S
C1279      C1280   1.411       .  A
C1280     Br1281   1.920       .  S
C1285      C1286   1.413       .  A
C1285      C1290   1.409   1_655  A
C1285      H1292   1.097   1_655  S
C1286      C1287   1.417       .  A
C1287      C1288   1.397       .  A
C1287     Br1294   1.923       .  S
C1288      C1289   1.403   1_655  A
C1288      H1293   1.098       .  S
C1289      C1290   1.408       .  A
C1290     Br1291   1.915       .  S
C1295      C1296   1.404       .  A
C1295      C1300   1.395       .  A
C1295      H1302   1.083       .  S
C1296      C1297   1.425       .  A
C1297      C1298   1.405       .  A
C1297     Br1304   1.920       .  S
C1298      C1299   1.397       .  A
C1298      H1303   1.083       .  S
C1299      C1918   1.473   1_554  S
C1299      C1300   1.409       .  A
C1300     Br2965   1.919   1_554  S
Br1301     C2964   1.918   1_455  S
C1305      C1306   1.403       .  A
C1305      C1310   1.394       .  A
C1305      H1312   1.084       .  S
C1306      C1307   1.414       .  A
C1307      C1308   1.398       .  A
C1307     Br1314   1.922       .  S
C1308      C1309   1.403       .  A
C1308      H1313   1.084       .  S
C1309      C1310   1.410       .  A
C1310     Br1311   1.918       .  S
C1315      C1316   1.416       .  A
C1315      C1320   1.409       .  A
C1315      H1322   1.083       .  S
C1316      C1317   1.402       .  A
C1317      C1318   1.393       .  A
C1317     Br1324   1.922       .  S
C1318      C1319   1.418       .  A
C1318      H1323   1.083       .  S
C1319      C1320   1.407       .  A
C1320     Br1321   1.916       .  S
C1325      C1326   1.405       .  A
C1325      C1330   1.405       .  A
C1325      H1332   1.083       .  S
C1326      C1327   1.422       .  A
C1327      C1328   1.401       .  A
C1327     Br1334   1.924       .  S
C1328      C1329   1.401       .  A
C1328      H1333   1.083       .  S
C1329      C1330   1.417       .  A
C1330     Br1331   1.920       .  S
C1335      C1336   1.406       .  A
C1335      C1340   1.393       .  A
C1335      H1342   1.083       .  S
C1336      C1337   1.415       .  A
C1337      C1338   1.399       .  A
C1337     Br1344   1.922       .  S
C1338      C1339   1.404       .  A
C1338      H1343   1.084       .  S
C1339      C1340   1.408       .  A
C1340     Br1341   1.921       .  S
C1345      C1346   1.416       .  A
C1345      C1350   1.407       .  A
C1345      H1352   1.083       .  S
C1346      C1347   1.410       .  A
C1347      C1348   1.401       .  A
C1347     Br1354   1.924       .  S
C1348      C1349   1.419       .  A
C1348      H1353   1.084       .  S
C1349      C1350   1.408       .  A
C1350     Br1351   1.917       .  S
C1355      C1356   1.409       .  A
C1355      C1360   1.401       .  A
C1355      H1362   1.084       .  S
C1356      C1357   1.409       .  A
C1357      C1358   1.399       .  A
C1357     Br1364   1.922       .  S
C1358      C1359   1.409       .  A
C1358      H1363   1.084       .  S
C1359      C1360   1.407       .  A
C1360     Br1361   1.919       .  S
C1365      C1366   1.404       .  A
C1365      C1370   1.395       .  A
C1365      H1372   1.083       .  S
C1366      C1367   1.422       .  A
C1367      C1368   1.400       .  A
C1367     Br1374   1.913       .  S
C1368      C1369   1.394       .  A
C1368      H1373   1.084       .  S
C1369      C1370   1.409       .  A
C1370     Br1371   1.918       .  S
C1375      C1376   1.404       .  A
C1375      C1380   1.397       .  A
C1375      H1382   1.084       .  S
C1376      C1377   1.422       .  A
C1377      C1378   1.399       .  A
C1377     Br1384   1.925       .  S
C1378      C1379   1.401       .  A
C1378      H1383   1.084       .  S
C1379      C1380   1.414       .  A
C1380     Br3045   1.921       .  S
Br1381     C3044   1.922       .  S
C1385      C1386   1.400       .  A
C1385      C1390   1.398       .  A
C1385      H1392   1.084   1_545  S
C1386      C1387   1.405       .  A
C1387      C1388   1.397       .  A
C1387     Br1394   1.919       .  S
C1388      C1389   1.406       .  A
C1388      H1393   1.084       .  S
C1389      C1390   1.417       .  A
C1390     Br1391   1.923   1_545  S
C1395      C1396   1.404   1_565  A
C1395      C1400   1.399       .  A
C1395      H1402   1.084       .  S
C1396      C3061   1.415       .  A
C1397      C1398   1.397       .  A
C1397      C3060   1.404       .  A
C1397     Br1404   1.918       .  S
C1398      C1399   1.407   1_556  A
C1398      H1403   1.083       .  S
C1399      C3064   1.414       .  A
C1400      C3063   1.418   1_565  A
C1400     Br1401   1.924       .  S
C1405      C1406   1.407   1_545  A
C1405      C1410   1.401       .  A
C1405      H1412   1.084       .  S
C1406      C1407   1.403       .  A
C1407      C1408   1.397       .  A
C1407     Br1414   1.920       .  S
C1408      C1409   1.413       .  A
C1408      H1413   1.083       .  S
C1409      C1410   1.410   1_565  A
C1410     Br1411   1.919       .  S
C1415      C1416   1.411       .  A
C1415      C1420   1.400   1_565  A
C1415      H1422   1.084   1_565  S
C1416      C1417   1.407       .  A
C1417      C1418   1.397       .  A
C1417     Br1424   1.921       .  S
C1418      C1419   1.409       .  A
C1418      H1423   1.084       .  S
C1419      C1420   1.405   1_565  A
C1420     Br1421   1.918       .  S
C1425      C1426   1.406       .  A
C1425      C1430   1.398       .  A
C1425      H1432   1.083       .  S
C1426      C1427   1.414       .  A
C1427      C1428   1.400       .  A
C1427     Br1434   1.921       .  S
C1428      C1429   1.407       .  A
C1428      H1433   1.083       .  S
C1429      C1430   1.416       .  A
C1430     Br1431   1.923       .  S
C1435      C3100   1.403       .  A
C1435      C3104   1.405       .  A
C1435      H1442   1.083   1_556  S
C1436      C1802   1.490       .  S
C1436      C1437   1.418       .  A
C1436      C3099   1.403       .  A
C1437      C1438   1.399       .  A
C1437     Br1444   1.919       .  S
C1438      C1439   1.402       .  A
C1438      H1443   1.083       .  S
C1439      C1440   1.426       .  A
C1440      C3099   1.406       .  A
C1440     Br3105   1.924       .  S
Br1441     C3104   1.924   1_554  S
C1445      C1446   1.414       .  A
C1445      C1450   1.407       .  A
C1445      H1452   1.083       .  S
C1446      C1447   1.403       .  A
C1447      C1448   1.392       .  A
C1447     Br1454   1.924       .  S
C1448      C1449   1.417       .  A
C1448      H1453   1.083       .  S
C1449      C1450   1.408       .  A
C1450     Br1451   1.917       .  S
C1455      C1456   1.409       .  A
C1455      C1460   1.401       .  A
C1455      H1462   1.083       .  S
C1456      C1457   1.415       .  A
C1457      C1458   1.391       .  A
C1457     Br1464   1.925       .  S
C1458      C1459   1.401       .  A
C1458      H1463   1.084       .  S
C1459      C1460   1.410       .  A
C1460     Br1461   1.920       .  S
C1465      C1466   1.402       .  A
C1465      C1470   1.399       .  A
C1465      H1472   1.083       .  S
C1466      C1467   1.426       .  A
C1467      C1468   1.401       .  A
C1467     Br1474   1.925       .  S
C1468      C1469   1.400       .  A
C1468      H1473   1.084       .  S
C1469      C1470   1.416       .  A
C1470     Br1471   1.918       .  S
C1475      C1476   1.396       .  A
C1475      C1480   1.402       .  A
C1475      H1482   1.084       .  S
C1476      C1477   1.409       .  A
C1477      C1478   1.393       .  A
C1477     Br1484   1.921       .  S
C1478      C1479   1.405       .  A
C1478      H1483   1.083       .  S
C1479      C1480   1.422       .  A
C1480     Br1481   1.916       .  S
C1485      C1486   1.404       .  A
C1485      C1490   1.393       .  A
C1485      H1492   1.083       .  S
C1486      C1487   1.422       .  A
C1487      C1488   1.403       .  A
C1487     Br1494   1.915       .  S
C1488      C1489   1.397       .  A
C1488      H1493   1.084       .  S
C1489      C1789   1.472   1_554  S
C1489      C1490   1.408       .  A
C1490     Br3155   1.916   1_554  S
Br1491     C3154   1.919       .  S
C1495      C1496   1.416       .  A
C1495      C1500   1.405       .  A
C1495      H1502   1.083       .  S
C1496      C1497   1.407       .  A
C1497      C1498   1.394       .  A
C1497     Br1504   1.924       .  S
C1498      C1499   1.416       .  A
C1498      H1503   1.084       .  S
C1499      C1500   1.406       .  A
C1500     Br1501   1.918       .  S
C1505      C1506   1.403       .  A
C1505      C1510   1.393       .  A
C1505      H1512   1.084       .  S
C1506      C1507   1.416       .  A
C1507      C1508   1.401       .  A
C1507     Br1514   1.922       .  S
C1508      C1509   1.405       .  A
C1508      H1513   1.083       .  S
C1509      C1510   1.417       .  A
C1510     Br1511   1.925       .  S
C1515      C1516   1.401       .  A
C1515      C1520   1.395       .  A
C1515      H1522   1.084       .  S
C1516      C1517   1.406       .  A
C1517      C1518   1.397       .  A
C1517     Br1524   1.920       .  S
C1518      C1519   1.407       .  A
C1518      H1523   1.084       .  S
C1519      C1520   1.410       .  A
C1520     Br1521   1.920       .  S
C1525      C1526   1.402       .  A
C1525      C1530   1.399       .  A
C1525      H1532   1.083       .  S
C1526      C1527   1.406       .  A
C1527      C1528   1.397       .  A
C1527     Br1534   1.917       .  S
C1528      C1529   1.402       .  A
C1528      H1533   1.084       .  S
C1529      C1530   1.408       .  A
C1530     Br1531   1.918       .  S
C1535      C1536   1.402       .  A
C1535      C1540   1.400       .  A
C1535      H1542   1.084       .  S
C1536      C1537   1.407       .  A
C1537      C1538   1.395       .  A
C1537     Br1544   1.920       .  S
C1538      C1539   1.404       .  A
C1538      H1543   1.084       .  S
C1539      C1540   1.412       .  A
C1540     Br1541   1.920       .  S
C1545      C1546   1.406       .  A
C1545      C1550   1.393       .  A
C1545      H1552   1.084       .  S
C1546      C1547   1.421       .  A
C1547      C1548   1.400       .  A
C1547     Br1554   1.914       .  S
C1548      C3213   1.394       .  A
C1548      H1553   1.084       .  S
C1549      C3212   1.396   1_554  A
C1549      C3214   1.408       .  A
C1550      C3213   1.408       .  A
C1550     Br3215   1.920       .  S
Br1551     C3214   1.918       .  S
C1555      C1556   1.405       .  A
C1555      C1560   1.393       .  A
C1555      H1562   1.083       .  S
C1556      C1557   1.417       .  A
C1557      C1558   1.406       .  A
C1557     Br1564   1.922       .  S
C1558      C1559   1.401       .  A
C1558      H1563   1.084       .  S
C1559      C1560   1.407       .  A
C1560     Br1561   1.918       .  S
C1565      C1570   1.400       .  A
C1565      C3230   1.408       .  A
C1565      H1572   1.083       .  S
C1566      C1567   1.411       .  A
C1566      C3229   1.402   1_565  A
C1567      C1568   1.399       .  A
C1567     Br1574   1.921       .  S
C1568      C3233   1.408   1_565  A
C1568      H1573   1.083       .  S
C1569      C1570   1.412   1_554  A
C1569      C3232   1.403   1_545  A
C1570     Br1571   1.921       .  S
C1575      C1576   1.404       .  A
C1575      C1580   1.399       .  A
C1575      H1582   1.083       .  S
C1576      C1577   1.413       .  A
C1577      C1578   1.396       .  A
C1577     Br1584   1.924       .  S
C1578      C1579   1.408       .  A
C1578      H1583   1.083       .  S
C1579      C1580   1.416       .  A
C1580     Br1581   1.922       .  S
C1585      C1586   1.416       .  A
C1585      C1590   1.403       .  A
C1585      H1592   1.083       .  S
C1586      C1587   1.409       .  A
C1587      C1588   1.393       .  A
C1587     Br1594   1.923       .  S
C1588      C1589   1.412       .  A
C1588      H1593   1.084       .  S
C1589      C1590   1.407       .  A
C1590     Br1591   1.921       .  S
C1595      C1596   1.417       .  A
C1595      C1600   1.399       .  A
C1595      H1602   1.083       .  S
C1596      C1597   1.408       .  A
C1597      C1598   1.405       .  A
C1597     Br3268   1.918       .  S
C1598      C1599   1.416       .  A
C1598      H1603   1.083       .  S
C1599      C1600   1.409       .  A
C1600     Br1601   1.921       .  S
Br1604     C3261   1.918       .  S
C1605      C1606   1.410   1_565  A
C1605      C1610   1.399       .  A
C1605      H1612   1.083       .  S
C1606      C1607   1.419       .  A
C1607      C1608   1.399       .  A
C1607     Br1614   1.923       .  S
C1608      C1609   1.403       .  A
C1608      H1613   1.083       .  S
C1609      C1610   1.407   1_545  A
C1610     Br1611   1.920       .  S
C1615      C1616   1.407       .  A
C1615      C1620   1.398       .  A
C1615      H1622   1.083       .  S
C1616      C1617   1.415       .  A
C1617      C1618   1.396       .  A
C1617     Br1624   1.922       .  S
C1618      C1619   1.402       .  A
C1618      H1623   1.084       .  S
C1619      C1620   1.410       .  A
C1620     Br1621   1.922       .  S
C1625      C1626   1.413       .  A
C1625      C1630   1.402       .  A
C1625      H1632   1.083       .  S
C1626      C1627   1.409       .  A
C1627      C1628   1.393       .  A
C1627     Br1634   1.924       .  S
C1628      C1629   1.413       .  A
C1628      H1633   1.083       .  S
C1629      C1630   1.410       .  A
C1630     Br1631   1.920       .  S
C1635      C1636   1.403       .  A
C1635      C1640   1.392       .  A
C1635      H1642   1.083       .  S
C1636      C1637   1.421       .  A
C1637      C1638   1.399       .  A
C1637     Br1644   1.920       .  S
C1638      C1639   1.395       .  A
C1638      H1643   1.084       .  S
C1639      C1640   1.410       .  A
C1640     Br1641   1.921       .  S
C1645      C1646   1.400       .  A
C1645      C1650   1.407       .  A
C1645      H1652   1.084       .  S
C1646      C1647   1.407       .  A
C1647      C1648   1.394       .  A
C1647     Br1654   1.916       .  S
C1648      C1649   1.405       .  A
C1648      H1653   1.083       .  S
C1649      C1650   1.422       .  A
C1650     Br1651   1.922       .  S
C1655      C1656   1.402       .  A
C1655      C1660   1.403       .  A
C1655      H1662   1.084       .  S
C1656      C1657   1.410       .  A
C1657      C1658   1.399       .  A
C1657     Br1664   1.908       .  S
C1658      C1659   1.405       .  A
C1658      H1663   1.083       .  S
C1659      C1660   1.425       .  A
C1660     Br1661   1.924       .  S
O1665     Cr1683   2.006       .  S
O1665      C1673   1.270       .  A
O1666     Cr1683   1.945   1_565  S
O1666      C1667   1.246       .  A
C1667      O1668   1.276       .  A
C1667      C3320   1.489       .  S
O1668     Cr1684   2.062       .  S
O1669     Cr1684   1.983       .  S
O1669      C1670   1.263   1_565  A
C1670      O1671   1.263       .  A
C1670      C3270   1.491       .  S
O1671     Cr1685   2.006       .  S
O1672     Cr1685   1.984       .  S
O1672      C1673   1.259       .  A
C1673      C3300   1.488       .  S
O1674     Cr1683   1.972       .  S
O1674      C1682   1.262       .  A
O1675     Cr1683   2.033   1_565  S
O1675      C1676   1.271       .  A
C1676      O1677   1.254       .  A
C1676      C3290   1.487       .  S
O1677     Cr1684   1.955       .  S
O1678     Cr1684   2.032       .  S
O1678      C1679   1.276   1_565  A
C1679      O1680   1.259       .  A
C1679      C3310   1.468       .  S
O1680     Cr1685   1.953       .  S
O1681     Cr1685   2.023       .  S
O1681      C1682   1.269       .  A
C1682      C3280   1.494       .  S
Cr1683     O1686   1.750       .  S
Cr1684     O1686   1.763   1_565  S
Cr1685     O1686   1.762       .  S
O1687      C1695   1.266       .  A
O1688      C1689   1.242       .  A
C1689      C3260   1.503       .  S
O1690     Cr1706   2.081       .  S
O1691     Cr1706   1.976       .  S
O1691      C1692   1.257   1_565  A
C1692      O1693   1.267       .  A
C1692      C3230   1.493       .  S
O1693     Cr1707   2.014       .  S
O1694      C1695   1.256       .  A
C1695      C3313   1.481       .  S
O1696     Cr1705   1.969   1_546  S
O1696      C1704   1.263       .  A
O1697     Cr1705   2.053   1_556  S
O1697      C1698   1.275       .  A
C1698      O1699   1.253       .  A
C1698      C3250   1.499       .  S
O1699     Cr1706   1.955       .  S
O1700     Cr1706   2.051       .  S
O1700      C1701   1.281   1_565  A
C1701      O1702   1.259       .  A
C1701      C3303   1.481       .  S
O1702     Cr1707   1.947       .  S
O1703     Cr1707   2.026       .  S
O1703      C1704   1.274       .  A
C1704      C3240   1.484       .  S
Cr1705     O1708   1.748   1_564  S
Cr1706     O1708   1.764   1_565  S
Cr1707     O1708   1.762       .  S
O1709     Cr1727   1.984       .  S
O1709      C1717   1.259       .  A
O1710     Cr1727   2.013       .  S
O1710      C1711   1.266       .  A
C1711      O1712   1.258       .  A
C1711      C3190   1.466       .  S
O1712     Cr1728   1.974       .  S
O1713     Cr1728   2.063       .  S
O1713      C1714   1.272       .  A
C1714      O1715   1.241       .  A
C1714      C3293   1.490       .  S
O1715     Cr1729   1.941       .  S
O1716     Cr1729   2.011       .  S
O1716      C1717   1.267       .  A
C1717      C3220   1.489       .  S
O1718     Cr1727   2.022       .  S
O1718      C1726   1.273       .  A
O1719     Cr1727   1.946       .  S
O1719      C1720   1.258       .  A
C1720      O1721   1.277       .  A
C1720      C3213   1.464       .  S
O1721     Cr1728   2.033       .  S
O1722     Cr1728   1.960       .  S
O1722      C1723   1.255       .  A
C1723      O1724   1.276       .  A
C1723      C3263   1.498       .  S
O1724     Cr1729   2.054       .  S
O1725     Cr1729   1.958       .  S
O1725      C1726   1.259       .  A
C1726      C3200   1.481       .  S
Cr1727     O1730   1.761       .  S
Cr1728     O1730   1.768       .  S
Cr1729     O1730   1.739       .  S
O1731     Cr1749   1.972       .  S
O1731      C1739   1.255       .  A
O1732     Cr1749   2.006       .  S
O1732      C1733   1.266       .  A
C1733      O1734   1.256       .  A
C1733      C3170   1.485       .  S
O1734     Cr1750   1.974       .  S
O1735     Cr1750   2.080       .  S
O1735      C1736   1.276       .  A
C1736      O1737   1.241       .  A
C1736      C3253   1.496       .  S
O1737     Cr1751   1.939       .  S
O1738     Cr1751   2.010       .  S
O1738      C1739   1.268       .  A
C1739      C3210   1.487       .  S
O1740     Cr1749   2.014       .  S
O1740      C1748   1.271       .  A
O1741     Cr1749   1.944       .  S
O1741      C1742   1.256       .  A
C1742      O1743   1.283       .  A
C1742      C3223   1.474       .  S
O1743     Cr1750   2.053       .  S
O1744     Cr1750   1.948       .  S
O1744      C1745   1.251       .  A
C1745      O1746   1.277       .  A
C1745      C3323   1.496       .  S
O1746     Cr1751   2.054       .  S
O1747     Cr1751   1.960       .  S
O1747      C1748   1.261       .  A
C1748      C3180   1.469       .  S
Cr1749     O1752   1.763       .  S
Cr1750     O1752   1.764       .  S
Cr1751     O1752   1.744       .  S
O1753     Cr1771   2.007       .  S
O1753      C1761   1.268       .  A
O1754     Cr1771   1.942       .  S
O1754      C1755   1.238       .  A
C1755      O1756   1.272       .  A
C1755      C3163   1.497       .  S
O1756     Cr1772   2.077       .  S
O1757     Cr1772   1.978       .  S
O1757      C1758   1.261       .  A
C1758      O1759   1.265       .  A
C1758      C3120   1.488       .  S
O1759     Cr1773   2.009       .  S
O1760     Cr1773   1.974       .  S
O1760      C1761   1.255       .  A
C1761      C3150   1.488       .  S
O1762     Cr1771   1.968       .  S
O1762      C1770   1.261       .  A
O1763     Cr1771   2.060       .  S
O1763      C1764   1.278       .  A
C1764      O1765   1.251       .  A
C1764      C3130   1.494       .  S
O1765     Cr1772   1.945       .  S
O1766     Cr1772   2.041       .  S
O1766      C1767   1.280       .  A
C1767      O1768   1.257       .  A
C1767      C3140   1.466       .  S
O1768     Cr1773   1.942       .  S
O1769     Cr1773   2.024       .  S
O1769      C1770   1.273       .  A
C1770      C3283   1.489       .  S
Cr1771     O1774   1.740       .  S
Cr1772     O1774   1.766       .  S
Cr1773     O1774   1.762       .  S
O1775     Cr1793   2.007       .  S
O1775      C1783   1.267       .  A
O1776     Cr1793   1.943       .  S
O1776      C1777   1.238       .  A
C1777      O1778   1.272       .  A
C1777      C3113   1.496       .  S
O1778     Cr1794   2.079       .  S
O1779     Cr1794   1.978       .  S
O1779      C1780   1.260       .  A
C1780      O1781   1.268       .  A
C1780      C3090   1.485       .  S
O1781     Cr1795   2.010       .  S
O1782     Cr1795   1.980       .  S
O1782      C1783   1.256       .  A
C1783      C3143   1.490       .  S
O1784     Cr1793   1.965       .  S
O1784      C1792   1.263       .  A
O1785     Cr1793   2.059       .  S
O1785      C1786   1.278       .  A
C1786      O1787   1.252       .  A
C1786      C3103   1.498       .  S
O1787     Cr1794   1.953       .  S
O1788     Cr1794   2.039       .  S
O1788      C1789   1.278       .  A
C1789      O1790   1.259       .  A
O1790     Cr1795   1.950       .  S
O1791     Cr1795   2.025       .  S
O1791      C1792   1.273       .  A
C1792      C3243   1.489       .  S
Cr1793     O1796   1.742       .  S
Cr1794     O1796   1.768       .  S
Cr1795     O1796   1.758       .  S
O1797      C1805   1.258       .  A
O1798     Cr1815   2.001       .  S
O1798      C1799   1.261   1_565  A
C1799      O1800   1.262       .  A
C1799      C3063   1.489       .  S
O1800     Cr1816   1.986       .  S
O1801     Cr1816   2.070       .  S
O1801      C1802   1.278       .  A
O1804      C1805   1.269       .  A
C1805      C3070   1.476       .  S
O1806     Cr1815   2.012       .  S
O1806      C1814   1.266       .  A
O1807     Cr1815   1.936       .  S
O1807      C1808   1.257   1_565  A
C1808      O1809   1.281       .  A
C1808      C3083   1.474       .  S
O1809     Cr1816   2.044       .  S
O1810     Cr1816   1.961       .  S
O1810      C1811   1.255       .  A
C1811      O1812   1.272       .  A
C1811      C3160   1.492       .  S
O1812     Cr1817   2.037       .  S
O1813     Cr1817   1.969   1_565  S
O1813      C1814   1.261       .  A
C1814      C3203   1.485       .  S
Cr1815     O1818   1.763   1_565  S
Cr1816     O1818   1.763       .  S
Cr1817     O1818   1.749       .  S
O1819     Cr1837   1.960       .  S
O1819      C1827   1.256       .  A
O1820     Cr1837   2.008       .  S
O1820      C1821   1.266   1_565  A
C1821      O1822   1.256       .  A
C1821      C3050   1.484       .  S
O1822     Cr1838   1.972       .  S
O1823     Cr1838   2.061       .  S
O1823      C1824   1.276       .  A
C1824      O1825   1.247       .  A
C1824      C3133   1.484       .  S
O1825     Cr1839   1.946       .  S
O1826     Cr1839   2.010   1_565  S
O1826      C1827   1.268       .  A
C1827      C3080   1.476       .  S
O1828     Cr1837   2.015       .  S
O1828      C1836   1.268       .  A
O1829     Cr1837   1.942       .  S
O1829      C1830   1.257   1_565  A
C1830      O1831   1.279       .  A
C1830      C3073   1.479   1_545  S
O1831     Cr1838   2.043       .  S
O1832     Cr1838   1.961       .  S
O1832      C1833   1.255       .  A
C1833      O1834   1.271       .  A
C1833      C3110   1.491       .  S
O1834     Cr1839   2.033       .  S
O1835     Cr1839   1.962   1_565  S
O1835      C1836   1.260       .  A
C1836      C3183   1.480       .  S
Cr1837     O1840   1.764   1_565  S
Cr1838     O1840   1.761       .  S
Cr1839     O1840   1.751       .  S
O1841      C1849   1.268       .  A
O1842      C1843   1.245       .  A
C1843      C3043   1.482       .  S
O1844     Cr1860   2.047       .  S
O1845     Cr1860   1.983       .  S
O1845      C1846   1.259       .  A
C1846      O1847   1.260   1_565  A
C1846      C3233   1.489   1_565  S
O1847     Cr1861   1.999       .  S
O1848      C1849   1.258       .  A
C1849      C3020   1.477       .  S
O1850     Cr1859   1.969   1_545  S
O1850      C1858   1.261       .  A
O1851     Cr1859   2.037       .  S
O1851      C1852   1.272       .  A
C1852      O1853   1.259       .  A
C1852      C3010   1.496       .  S
O1853     Cr1860   1.968       .  S
O1854     Cr1860   2.043       .  S
O1854      C1855   1.280   1_565  A
C1855      O1856   1.256       .  A
C1855      C3033   1.467       .  S
O1856     Cr1861   1.940       .  S
O1857     Cr1861   2.014       .  S
O1857      C1858   1.269       .  A
C1858      C3003   1.481       .  S
Cr1859     O1862   1.750       .  S
Cr1860     O1862   1.769       .  S
Cr1861     O1862   1.767   1_545  S
O1863     Cr1881   2.016   1_545  S
O1863      C1871   1.270       .  A
O1864     Cr1881   1.951       .  S
O1864      C1865   1.249       .  A
C1865      O1866   1.276       .  A
C1865      C2993   1.487       .  S
O1866     Cr1882   2.061       .  S
O1867     Cr1882   1.979       .  S
O1867      C1868   1.259   1_565  A
C1868      O1869   1.267       .  A
C1868      C3273   1.486       .  S
O1869     Cr1883   2.009       .  S
O1870     Cr1883   1.963       .  S
O1870      C1871   1.254       .  A
C1871      C3030   1.487       .  S
O1872     Cr1881   1.959   1_545  S
O1872      C1880   1.256       .  A
O1873     Cr1881   2.032       .  S
O1873      C1874   1.271       .  A
C1874      O1875   1.257       .  A
C1874      C2980   1.493       .  S
O1875     Cr1882   1.968       .  S
O1876     Cr1882   2.042       .  S
O1876      C1877   1.278   1_565  A
C1877      O1878   1.255       .  A
C1877      C3023   1.476       .  S
O1878     Cr1883   1.936       .  S
O1879     Cr1883   2.022       .  S
O1879      C1880   1.271       .  A
C1880      C2970   1.485       .  S
Cr1881     O1884   1.752   1_565  S
Cr1882     O1884   1.765   1_565  S
Cr1883     O1884   1.768       .  S
O1885     Cr1903   1.981       .  S
O1885      C1893   1.258       .  A
O1886     Cr1903   1.997       .  S
O1886      C1887   1.261   1_655  A
C1887      O1888   1.261       .  A
C1887      C2930   1.482       .  S
O1888     Cr1904   1.979       .  S
O1889     Cr1904   2.083       .  S
O1889      C1890   1.277       .  A
C1890      O1891   1.241       .  A
C1890      C3013   1.501       .  S
O1891     Cr1905   1.940       .  S
O1892     Cr1905   2.015   1_655  S
O1892      C1893   1.272       .  A
C1893      C2960   1.500       .  S
O1894     Cr1903   2.018       .  S
O1894      C1902   1.270       .  A
O1895     Cr1903   1.938       .  S
O1895      C1896   1.258   1_655  A
C1896      O1897   1.280       .  A
C1896      C2953   1.475       .  S
O1897     Cr1904   2.048       .  S
O1898     Cr1904   1.942       .  S
O1898      C1899   1.249       .  A
C1899      O1900   1.278       .  A
C1899      C2990   1.495       .  S
O1900     Cr1905   2.064       .  S
O1901     Cr1905   1.970   1_655  S
O1901      C1902   1.262       .  A
C1902      C2943   1.476       .  S
Cr1903     O1906   1.764   1_655  S
Cr1904     O1906   1.762       .  S
Cr1905     O1906   1.746       .  S
O1907     Cr1925   1.983       .  S
O1907      C1915   1.259       .  A
O1908     Cr1925   2.005       .  S
O1908      C1909   1.263   1_655  A
C1909      O1910   1.263       .  A
C1909      C2910   1.494       .  S
O1910     Cr1926   1.989       .  S
O1911     Cr1926   2.074       .  S
O1911      C1912   1.274       .  A
C1912      O1913   1.243       .  A
C1912      C2983   1.499       .  S
O1913     Cr1927   1.943       .  S
O1914     Cr1927   1.998   1_655  S
O1914      C1915   1.264       .  A
C1915      C2950   1.488       .  S
O1916     Cr1925   2.023       .  S
O1916      C1924   1.271       .  A
O1917     Cr1925   1.949       .  S
O1917      C1918   1.258       .  A
C1918      O1919   1.279   1_655  A
O1919     Cr1926   2.043       .  S
O1920     Cr1926   1.954       .  S
O1920      C1921   1.253       .  A
C1921      O1922   1.273       .  A
C1921      C3040   1.489       .  S
O1922     Cr1927   2.037       .  S
O1923     Cr1927   1.960   1_655  S
O1923      C1924   1.261       .  A
C1924      C2920   1.478       .  S
Cr1925     O1928   1.764   1_655  S
Cr1926     O1928   1.765       .  S
Cr1927     O1928   1.748       .  S
O1929     Cr1947   2.008   1_455  S
O1929      C1937   1.269       .  A
O1930     Cr1947   1.942       .  S
O1930      C1931   1.241       .  A
C1931      O1932   1.274       .  A
C1931      C2873   1.503       .  S
O1932     Cr1948   2.082       .  S
O1933     Cr1948   1.996       .  S
O1933      C1934   1.265       .  A
C1934      O1935   1.267   1_655  A
C1934      C2860   1.497       .  S
O1935     Cr1949   2.011       .  S
O1936     Cr1949   1.974       .  S
O1936      C1937   1.255       .  A
C1937      C2890   1.490       .  S
O1938     Cr1947   1.958   1_455  S
O1938      C1946   1.260       .  A
O1939     Cr1947   2.051       .  S
O1939      C1940   1.276       .  A
C1940      O1941   1.252       .  A
C1940      C2903   1.490       .  S
O1941     Cr1948   1.950       .  S
O1942     Cr1948   2.049       .  S
O1942      C1943   1.281   1_655  A
C1943      O1944   1.260       .  A
C1943      C2880   1.485       .  S
O1944     Cr1949   1.954       .  S
O1945     Cr1949   2.027       .  S
O1945      C1946   1.271       .  A
C1946      C3000   1.489       .  S
Cr1947     O1950   1.747       .  S
Cr1948     O1950   1.765       .  S
Cr1949     O1950   1.761   1_455  S
O1951     Cr1969   2.007   1_455  S
O1951      C1959   1.266       .  A
O1952     Cr1969   1.938       .  S
O1952      C1953   1.237       .  A
C1953      O1954   1.272       .  A
C1953      C2840   1.493       .  S
O1954     Cr1970   2.073       .  S
O1955     Cr1970   1.989       .  S
O1955      C1956   1.262       .  A
C1956      O1957   1.261   1_655  A
C1956      C2830   1.490       .  S
O1957     Cr1971   2.000       .  S
O1958     Cr1971   1.974       .  S
O1958      C1959   1.259       .  A
C1959      C2883   1.480       .  S
O1960     Cr1969   1.971   1_455  S
O1960      C1968   1.265       .  A
O1961     Cr1969   2.064       .  S
O1961      C1962   1.279       .  A
C1962      O1963   1.254       .  A
C1962      C2853   1.499       .  S
O1963     Cr1970   1.952       .  S
O1964     Cr1970   2.046       .  S
O1964      C1965   1.281   1_655  A
C1965      O1966   1.257       .  A
C1965      C2893   1.469       .  S
O1966     Cr1971   1.938       .  S
O1967     Cr1971   2.014       .  S
O1967      C1968   1.269       .  A
C1968      C2973   1.477       .  S
Cr1969     O1972   1.745       .  S
Cr1970     O1972   1.768       .  S
Cr1971     O1972   1.762   1_455  S
O1973     Cr1991   1.978       .  S
O1973      C1981   1.259       .  A
O1974     Cr1991   2.002       .  S
O1974      C1975   1.262   1_565  A
C1975      O1976   1.263       .  A
C1975      C3053   1.488       .  S
O1976     Cr1992   1.987       .  S
O1977     Cr1992   2.064       .  S
O1977      C1978   1.276       .  A
C1978      O1979   1.246       .  A
C1978      C2850   1.488       .  S
O1979     Cr1993   1.946       .  S
O1980     Cr1993   2.011   1_565  S
O1980      C1981   1.268       .  A
C1981      C2813   1.483       .  S
O1982     Cr1991   2.024       .  S
O1982      C1990   1.270       .  A
O1983     Cr1991   1.947       .  S
O1983      C1984   1.259   1_565  A
C1984      O1985   1.278       .  A
C1984      C2823   1.474   1_545  S
O1985     Cr1992   2.038       .  S
O1986     Cr1992   1.967       .  S
O1986      C1987   1.257       .  A
C1987      O1988   1.273       .  A
C1987      C2870   1.495       .  S
O1988     Cr1993   2.035       .  S
O1989     Cr1993   1.961   1_565  S
O1989      C1990   1.257       .  A
C1990      C2940   1.482       .  S
Cr1991     O1994   1.766   1_565  S
Cr1992     O1994   1.766       .  S
Cr1993     O1994   1.749       .  S
O1995      C2003   1.256       .  A
O1996     Cr2013   2.002       .  S
O1996      C1997   1.264   1_565  A
C1997      O1998   1.259       .  A
C1997      C3060   1.464       .  S
O1998     Cr2014   1.972       .  S
O1999     Cr2014   2.070       .  S
C2000      O2001   1.244       .  A
C2000      C2900   1.482       .  S
O2002      C2003   1.268       .  A
C2003      C2820   1.481       .  S
O2004     Cr2013   2.020       .  S
O2004      C2012   1.271       .  A
O2005     Cr2013   1.950       .  S
O2005      C2006   1.259   1_565  A
C2006      O2007   1.279       .  A
C2006      C2810   1.484   1_545  S
O2007     Cr2014   2.044       .  S
O2008     Cr2014   1.957       .  S
O2008      C2009   1.254       .  A
C2009      O2010   1.271       .  A
C2009      C2843   1.485       .  S
O2010     Cr2015   2.033   1_556  S
O2011     Cr2015   1.956   1_566  S
O2011      C2012   1.257       .  A
C2012      C2923   1.482       .  S
Cr2013     O2016   1.763   1_565  S
Cr2014     O2016   1.767       .  S
Cr2015     O2016   1.752   1_554  S
O2017     Cr2035   1.994       .  S
O2017      C2025   1.264       .  A
O2018     Cr2035   1.944       .  S
O2018      C2019   1.241       .  A
C2019      O2020   1.276       .  A
C2019      C2783   1.503       .  S
O2020     Cr2036   2.085       .  S
O2021     Cr2036   1.981       .  S
O2021      C2022   1.262       .  A
C2022      O2023   1.266       .  A
C2022      C3123   1.482       .  S
O2023     Cr2037   2.002       .  S
O2024     Cr2037   1.985       .  S
O2024      C2025   1.258       .  A
C2025      C2803   1.483       .  S
O2026     Cr2035   1.950       .  S
O2026      C2034   1.260       .  A
O2027     Cr2035   2.036       .  S
O2027      C2028   1.271       .  A
C2028      O2029   1.253       .  A
C2028      C2770   1.483       .  S
O2029     Cr2036   1.953       .  S
O2030     Cr2036   2.038       .  S
O2030      C2031   1.280       .  A
C2031      O2032   1.259       .  A
C2031      C2790   1.481       .  S
O2032     Cr2037   1.953       .  S
O2033     Cr2037   2.021       .  S
O2033      C2034   1.270       .  A
C2034      C2763   1.481       .  S
Cr2035     O2038   1.743       .  S
Cr2036     O2038   1.763       .  S
Cr2037     O2038   1.759       .  S
O2039     Cr2057   2.004       .  S
O2039      C2047   1.268       .  A
O2040     Cr2057   1.943       .  S
O2040      C2041   1.243       .  A
C2041      O2042   1.273       .  A
C2041      C2750   1.492       .  S
O2042     Cr2058   2.063       .  S
O2043     Cr2058   1.982       .  S
O2043      C2044   1.261       .  A
C2044      O2045   1.263       .  A
C2044      C3093   1.489       .  S
O2045     Cr2059   2.005       .  S
O2046     Cr2059   1.975       .  S
O2046      C2047   1.256       .  A
C2047      C2793   1.488       .  S
O2048     Cr2057   1.973       .  S
O2048      C2056   1.263       .  A
O2049     Cr2057   2.050       .  S
O2049      C2050   1.274       .  A
C2050      O2051   1.255       .  A
C2050      C2740   1.497       .  S
O2051     Cr2058   1.954       .  S
O2052     Cr2058   2.035       .  S
O2052      C2053   1.277       .  A
C2053      O2054   1.257       .  A
C2053      C2800   1.464       .  S
O2054     Cr2059   1.940       .  S
O2055     Cr2059   2.019       .  S
O2055      C2056   1.270       .  A
C2056      C2730   1.481       .  S
Cr2057     O2060   1.747       .  S
Cr2058     O2060   1.763       .  S
Cr2059     O2060   1.763       .  S
O2061     Cr2079   1.974       .  S
O2061      C2069   1.257       .  A
O2062     Cr2079   1.993       .  S
O2062      C2063   1.262       .  A
C2063      O2064   1.260       .  A
C2063      C2690   1.462       .  S
O2064     Cr2080   1.979       .  S
O2065     Cr2080   2.072       .  S
O2065      C2066   1.276       .  A
C2066      O2067   1.243       .  A
C2066      C2743   1.494       .  S
O2067     Cr2081   1.938       .  S
O2068     Cr2081   2.005       .  S
O2068      C2069   1.266       .  A
C2069      C2710   1.477       .  S
O2070     Cr2079   2.021       .  S
O2070      C2078   1.268       .  A
O2071     Cr2079   1.948       .  S
O2071      C2072   1.261       .  A
C2072      O2073   1.279       .  A
C2072      C2723   1.491       .  S
O2073     Cr2080   2.037       .  S
O2074     Cr2080   1.961       .  S
O2074      C2075   1.254       .  A
C2075      O2076   1.273       .  A
C2075      C2780   1.495       .  S
O2076     Cr2081   2.042       .  S
O2077     Cr2081   1.949       .  S
O2077      C2078   1.260       .  A
C2078      C2700   1.482       .  S
Cr2079     O2082   1.767       .  S
Cr2080     O2082   1.763       .  S
Cr2081     O2082   1.743       .  S
O2083      C2091   1.254       .  A
O2084     Cr2101   2.000       .  S
O2084      C2085   1.265       .  A
C2085      O2086   1.254       .  A
C2085      C2670   1.469       .  S
O2086     Cr2102   1.961       .  S
O2087     Cr2102   2.051       .  S
C2088      O2089   1.244       .  A
C2088      C2773   1.487       .  S
O2090      C2091   1.268       .  A
C2091      C2720   1.472       .  S
O2092     Cr2101   2.015       .  S
O2092      C2100   1.271       .  A
O2093     Cr2101   1.942       .  S
O2093      C2094   1.258       .  A
C2094      O2095   1.277       .  A
C2094      C2713   1.479       .  S
O2095     Cr2102   2.038       .  S
O2096     Cr2102   1.954       .  S
O2096      C2097   1.254       .  A
C2097      O2098   1.273       .  A
C2097      C2753   1.491       .  S
O2098     Cr2103   2.043       .  S
O2099     Cr2103   1.970       .  S
O2099      C2100   1.262       .  A
C2100      C2680   1.480       .  S
Cr2101     O2104   1.758       .  S
Cr2102     O2104   1.764       .  S
Cr2103     O2104   1.748       .  S
O2105      C2113   1.267       .  A
O2106      C2107   1.241       .  A
C2107      C2660   1.483       .  S
O2108     Cr2124   2.071       .  S
O2109     Cr2124   1.974       .  S
O2109      C2110   1.259       .  A
C2110      O2111   1.265       .  A
C2110      C2623   1.473       .  S
O2111     Cr2125   2.006       .  S
O2112      C2113   1.256       .  A
C2113      C2640   1.476       .  S
O2114     Cr2123   1.956       .  S
O2114      C2122   1.256       .  A
O2115     Cr2123   2.043       .  S
O2115      C2116   1.276       .  A
C2116      O2117   1.250       .  A
C2116      C2633   1.476       .  S
O2117     Cr2124   1.945       .  S
O2118     Cr2124   2.043       .  S
O2118      C2119   1.280       .  A
C2119      O2120   1.257       .  A
C2119      C2650   1.472       .  S
O2120     Cr2125   1.948       .  S
O2121     Cr2125   2.010       .  S
O2121      C2122   1.268       .  A
C2122      C2760   1.476       .  S
Cr2123     O2126   1.747       .  S
Cr2124     O2126   1.764       .  S
Cr2125     O2126   1.765       .  S
O2127     Cr2145   2.023       .  S
O2127      C2135   1.273       .  A
O2128     Cr2145   1.944       .  S
O2128      C2129   1.241       .  A
C2129      O2130   1.275       .  A
C2129      C2613   1.485       .  S
O2130     Cr2146   2.069       .  S
O2131     Cr2146   1.978       .  S
O2131      C2132   1.261       .  A
C2132      O2133   1.262       .  A
C2132      C2590   1.481       .  S
O2133     Cr2147   1.999       .  S
O2134     Cr2147   1.968       .  S
O2134      C2135   1.255       .  A
C2135      C2653   1.494       .  S
O2136     Cr2145   1.962       .  S
O2136      C2144   1.256       .  A
O2137     Cr2145   2.055       .  S
O2137      C2138   1.280       .  A
C2138      O2139   1.252       .  A
C2138      C2600   1.492       .  S
O2139     Cr2146   1.953       .  S
O2140     Cr2146   2.042       .  S
O2140      C2141   1.279       .  A
C2141      O2142   1.259       .  A
C2141      C2643   1.477       .  S
O2142     Cr2147   1.934       .  S
O2143     Cr2147   2.025       .  S
O2143      C2144   1.272       .  A
C2144      C2733   1.488       .  S
Cr2145     O2148   1.744       .  S
Cr2146     O2148   1.768       .  S
Cr2147     O2148   1.764       .  S
O2149     Cr2167   1.981       .  S
O2149      C2157   1.259       .  A
O2150     Cr2167   2.014       .  S
O2150      C2151   1.267       .  A
C2151      O2152   1.258       .  A
C2151      C3193   1.467       .  S
O2152     Cr2168   1.974       .  S
O2153     Cr2168   2.084       .  S
O2153      C2154   1.277       .  A
C2154      O2155   1.237       .  A
C2154      C2630   1.490       .  S
O2155     Cr2169   1.943       .  S
O2156     Cr2169   2.015       .  S
O2156      C2157   1.267       .  A
C2157      C2580   1.488       .  S
O2158     Cr2167   2.026       .  S
O2158      C2166   1.273       .  A
O2159     Cr2167   1.951       .  S
O2159      C2160   1.258       .  A
C2160      O2161   1.281       .  A
C2160      C2570   1.482       .  S
O2161     Cr2168   2.052       .  S
O2162     Cr2168   1.950       .  S
O2162      C2163   1.250       .  A
C2163      O2164   1.276       .  A
C2163      C2610   1.494       .  S
O2164     Cr2169   2.066       .  S
O2165     Cr2169   1.944       .  S
O2165      C2166   1.257       .  A
C2166      C2703   1.477       .  S
Cr2167     O2170   1.761       .  S
Cr2168     O2170   1.763       .  S
Cr2169     O2170   1.740       .  S
O2171     Cr2189   1.992       .  S
O2171      C2179   1.259       .  A
O2172     Cr2189   1.998       .  S
O2172      C2173   1.262       .  A
C2173      O2174   1.264       .  A
C2173      C3173   1.487       .  S
O2174     Cr2190   1.988       .  S
O2175     Cr2190   2.097       .  S
O2175      C2176   1.278       .  A
C2176      O2177   1.236       .  A
C2176      C2603   1.504       .  S
O2177     Cr2191   1.945       .  S
O2178     Cr2191   2.013       .  S
O2178      C2179   1.269       .  A
C2179      C2573   1.498       .  S
O2180     Cr2189   2.025       .  S
O2180      C2188   1.272       .  A
O2181     Cr2189   1.953       .  S
O2181      C2182   1.258       .  A
C2182      O2183   1.281       .  A
O2183     Cr2190   2.050       .  S
O2184     Cr2190   1.944       .  S
O2184      C2185   1.249       .  A
C2185      O2186   1.277       .  A
C2185      C2663   1.490       .  S
O2186     Cr2191   2.059       .  S
O2187     Cr2191   1.959       .  S
O2187      C2188   1.260       .  A
C2188      C2683   1.476       .  S
Cr2189     O2192   1.757       .  S
Cr2190     O2192   1.765       .  S
Cr2191     O2192   1.744       .  S
O2193     Cr2211   2.006   1_455  S
O2193      C2201   1.265       .  A
O2194     Cr2211   1.944       .  S
O2194      C2195   1.239       .  A
C2195      O2196   1.272       .  A
C2195      C2563   1.494       .  S
O2196     Cr2212   2.073       .  S
O2197     Cr2212   1.986       .  S
O2197      C2198   1.263       .  A
C2198      O2199   1.267   1_655  A
C2198      C2863   1.481       .  S
O2199     Cr2213   2.011       .  S
O2200     Cr2213   1.975       .  S
O2200      C2201   1.257       .  A
C2201      C2550   1.479       .  S
O2202     Cr2211   1.968   1_455  S
O2202      C2210   1.262       .  A
O2203     Cr2211   2.054       .  S
O2203      C2204   1.275       .  A
C2204      O2205   1.254       .  A
C2204      C2530   1.492       .  S
O2205     Cr2212   1.954       .  S
O2206     Cr2212   2.036       .  S
O2206      C2207   1.277   1_655  A
C2207      O2208   1.257       .  A
C2207      C2540   1.471       .  S
O2208     Cr2213   1.944       .  S
O2209     Cr2213   2.026       .  S
O2209      C2210   1.273       .  A
C2210      C2520   1.483       .  S
Cr2211     O2214   1.749       .  S
Cr2212     O2214   1.771       .  S
Cr2213     O2214   1.761   1_455  S
O2215     Cr2233   2.005   1_455  S
O2215      C2223   1.264       .  A
O2216     Cr2233   1.942       .  S
O2216      C2217   1.235       .  A
C2217      O2218   1.271       .  A
C2217      C2510   1.488       .  S
O2218     Cr2234   2.075       .  S
O2219     Cr2234   1.979       .  S
O2219      C2220   1.260       .  A
C2220      O2221   1.267   1_655  A
C2220      C2833   1.482       .  S
O2221     Cr2235   2.005       .  S
O2222     Cr2235   1.971       .  S
O2222      C2223   1.256       .  A
C2223      C2543   1.482       .  S
O2224     Cr2233   1.969   1_455  S
O2224      C2232   1.264       .  A
O2225     Cr2233   2.061       .  S
O2225      C2226   1.276       .  A
C2226      O2227   1.254       .  A
C2226      C2500   1.492       .  S
O2227     Cr2234   1.953       .  S
O2228     Cr2234   2.039       .  S
O2228      C2229   1.279   1_655  A
C2229      O2230   1.257       .  A
O2230     Cr2235   1.928       .  S
O2231     Cr2235   2.029       .  S
O2231      C2232   1.274       .  A
C2232      C2490   1.485       .  S
Cr2233     O2236   1.740       .  S
Cr2234     O2236   1.771       .  S
Cr2235     O2236   1.756   1_455  S
O2237      C2245   1.257       .  A
O2238     Cr2255   1.997       .  S
O2238      C2239   1.261       .  A
C2239      O2240   1.260       .  A
C2239      C2673   1.484       .  S
O2240     Cr2256   1.979       .  S
O2241     Cr2256   2.062       .  S
C2242      O2243   1.247       .  A
C2242      C2503   1.483       .  S
O2244      C2245   1.270       .  A
C2245      C2470   1.490       .  S
O2246     Cr2255   2.018       .  S
O2246      C2254   1.269       .  A
O2247     Cr2255   1.941       .  S
O2247      C2248   1.258       .  A
C2248      O2249   1.278       .  A
C2248      C2483   1.480       .  S
O2249     Cr2256   2.042       .  S
O2250     Cr2256   1.955       .  S
O2250      C2251   1.253       .  A
C2251      O2252   1.272       .  A
C2251      C2560   1.484       .  S
O2252     Cr2257   2.032       .  S
O2253     Cr2257   1.967       .  S
O2253      C2254   1.260       .  A
C2254      C2463   1.474       .  S
Cr2255     O2258   1.765       .  S
Cr2256     O2258   1.766       .  S
Cr2257     O2258   1.751       .  S
O2259     Cr2277   1.971       .  S
O2259      C2267   1.259       .  A
O2260     Cr2277   2.007       .  S
O2260      C2261   1.265       .  A
C2261      O2262   1.259       .  A
C2261      C2693   1.477       .  S
O2262     Cr2278   1.969       .  S
O2263     Cr2278   2.059       .  S
O2263      C2264   1.274       .  A
C2264      O2265   1.246       .  A
C2264      C2533   1.484       .  S
O2265     Cr2279   1.950       .  S
O2266     Cr2279   2.007       .  S
O2266      C2267   1.268       .  A
C2267      C2480   1.478       .  S
O2268     Cr2277   2.018       .  S
O2268      C2276   1.269       .  A
O2269     Cr2277   1.954       .  S
O2269      C2270   1.259       .  A
C2270      O2271   1.276       .  A
C2270      C2473   1.469       .  S
O2271     Cr2278   2.033       .  S
O2272     Cr2278   1.944       .  S
O2272      C2273   1.251       .  A
C2273      O2274   1.273       .  A
C2273      C2513   1.478       .  S
O2274     Cr2279   2.036       .  S
O2275     Cr2279   1.963       .  S
O2275      C2276   1.258       .  A
C2276      C2450   1.473       .  S
Cr2277     O2280   1.763       .  S
Cr2278     O2280   1.762       .  S
Cr2279     O2280   1.751       .  S
O2281     Cr2299   2.002       .  S
O2281      C2289   1.267       .  A
O2282     Cr2299   1.943       .  S
O2282      C2283   1.241       .  A
C2283      O2284   1.276       .  A
C2283      C2440   1.501       .  S
O2284     Cr2300   2.086       .  S
O2285     Cr2300   1.968       .  S
O2285      C2286   1.258       .  A
C2286      O2287   1.268       .  A
C2286      C2593   1.480       .  S
O2287     Cr2301   2.007       .  S
O2288     Cr2301   1.982       .  S
O2288      C2289   1.255       .  A
C2289      C2420   1.493       .  S
O2290     Cr2299   1.953       .  S
O2290      C2298   1.257       .  A
O2291     Cr2299   2.043       .  S
O2291      C2292   1.274       .  A
C2292      O2293   1.250       .  A
C2292      C2410   1.482       .  S
O2293     Cr2300   1.943       .  S
O2294     Cr2300   2.050       .  S
O2294      C2295   1.280       .  A
C2295      O2296   1.259       .  A
C2295      C2433   1.485       .  S
O2296     Cr2301   1.947       .  S
O2297     Cr2301   2.034       .  S
O2297      C2298   1.276       .  A
C2298      C2523   1.487       .  S
Cr2299     O2302   1.745       .  S
Cr2300     O2302   1.762       .  S
Cr2301     O2302   1.759       .  S
O2303      C2311   1.269       .  A
O2304      C2305   1.234       .  A
C2305      C2400   1.504       .  S
O2306     Cr2322   2.080       .  S
O2307     Cr2322   1.977       .  S
O2307      C2308   1.261       .  A
C2308      O2309   1.269       .  A
C2308      C2620   1.484       .  S
O2309     Cr2323   2.017       .  S
O2310      C2311   1.259       .  A
C2311      C2430   1.486       .  S
O2312     Cr2321   1.963       .  S
O2312      C2320   1.260       .  A
O2313     Cr2321   2.068       .  S
O2313      C2314   1.280       .  A
C2314      O2315   1.249       .  A
C2314      C2393   1.495       .  S
O2315     Cr2322   1.939       .  S
O2316     Cr2322   2.042       .  S
O2316      C2317   1.279       .  A
C2317      O2318   1.257       .  A
C2317      C2423   1.470       .  S
O2318     Cr2323   1.942       .  S
O2319     Cr2323   2.031       .  S
O2319      C2320   1.274       .  A
C2320      C2493   1.480       .  S
Cr2321     O2324   1.747       .  S
Cr2322     O2324   1.766       .  S
Cr2323     O2324   1.763       .  S
O2325     Cr2343   1.972       .  S
O2325      C2333   1.258       .  A
O2326     Cr2343   1.997   1_455  S
O2326      C2327   1.263       .  A
C2327      O2328   1.258       .  A
C2327      C2933   1.472       .  S
O2328     Cr2344   1.975       .  S
O2329     Cr2344   2.046       .  S
O2329      C2330   1.271       .  A
C2330      O2331   1.243       .  A
C2330      C2413   1.475       .  S
O2331     Cr2345   1.941       .  S
O2332     Cr2345   2.016   1_655  S
O2332      C2333   1.270       .  A
C2333      C2383   1.487       .  S
O2334     Cr2343   2.020       .  S
O2334      C2342   1.268       .  A
O2335     Cr2343   1.947       .  S
O2335      C2336   1.261   1_655  A
C2336      O2337   1.276       .  A
C2336      C2370   1.475       .  S
O2337     Cr2344   2.027       .  S
O2338     Cr2344   1.958       .  S
O2338      C2339   1.254       .  A
C2339      O2340   1.278       .  A
C2339      C2403   1.491       .  S
O2340     Cr2345   2.051       .  S
O2341     Cr2345   1.970   1_655  S
O2341      C2342   1.262       .  A
C2342      C2460   1.484       .  S
Cr2343     O2346   1.765   1_655  S
Cr2344     O2346   1.769       .  S
Cr2345     O2346   1.746       .  S
O2347     Cr2365   1.966       .  S
O2347      C2355   1.257       .  A
O2348     Cr2365   2.005   1_455  S
O2348      C2349   1.265       .  A
C2349      O2350   1.260       .  A
C2349      C2913   1.485       .  S
O2350     Cr2366   1.987       .  S
O2351     Cr2366   2.071       .  S
O2351      C2352   1.277       .  A
C2352      O2353   1.241       .  A
C2352      C2390   1.489       .  S
O2353     Cr2367   1.940       .  S
O2354     Cr2367   2.013   1_655  S
O2354      C2355   1.269       .  A
C2355      C2373   1.477       .  S
O2356     Cr2365   2.020       .  S
O2356      C2364   1.270       .  A
O2357     Cr2365   1.941       .  S
O2357      C2358   1.258   1_655  A
C2358      O2359   1.282       .  A
C2358      C2380   1.481       .  S
O2359     Cr2366   2.050       .  S
O2360     Cr2366   1.961       .  S
O2360      C2361   1.256       .  A
C2361      O2362   1.274       .  A
C2361      C2443   1.497       .  S
O2362     Cr2367   2.046       .  S
O2363     Cr2367   1.965   1_655  S
O2363      C2364   1.260       .  A
C2364      C2453   1.480       .  S
Cr2365     O2368   1.764   1_655  S
Cr2366     O2368   1.766       .  S
Cr2367     O2368   1.748       .  S
C2369      C2374   1.396       .  A
C2371      C2372   1.401       .  A
C2372      C2373   1.411   1_455  A
C2372      H2377   1.084       .  S
C2373      C2374   1.406       .  A
C2374     Br2375   1.920       .  S
C2379      C2380   1.409   1_655  A
C2379      C2384   1.397       .  A
C2379      H2386   1.084       .  S
C2380      C2381   1.405       .  A
C2381      C2382   1.405       .  A
C2381     Br2388   1.918       .  S
C2382      C2383   1.414   1_455  A
C2382      H2387   1.083       .  S
C2383      C2384   1.409       .  A
C2384     Br2385   1.921       .  S
C2389      C2390   1.400       .  A
C2389      C2394   1.402       .  A
C2389      H2396   1.084       .  S
C2390      C2391   1.420       .  A
C2391      C2392   1.401       .  A
C2391     Br2398   1.920       .  S
C2392      C2393   1.402       .  A
C2392      H2397   1.083       .  S
C2393      C2394   1.426       .  A
C2394     Br2395   1.926       .  S
C2399      C2400   1.403       .  A
C2399      C2404   1.411       .  A
C2399      H2406   1.083       .  S
C2400      C2401   1.433       .  A
C2401      C2402   1.396       .  A
C2401     Br2408   1.923       .  S
C2402      C2403   1.391       .  A
C2402      H2407   1.084       .  S
C2403      C2404   1.422       .  A
C2404     Br2405   1.920       .  S
C2409      C2410   1.403       .  A
C2409      C2414   1.394       .  A
C2409      H2416   1.083       .  S
C2410      C2411   1.421       .  A
C2411      C2412   1.399       .  A
C2411     Br2418   1.926       .  S
C2412      C2413   1.402       .  A
C2412      H2417   1.083       .  S
C2413      C2414   1.414       .  A
C2414     Br2415   1.921       .  S
C2419      C2420   1.404       .  A
C2419      C2424   1.393       .  A
C2419      H2426   1.083       .  S
C2420      C2421   1.424       .  A
C2421      C2422   1.404       .  A
C2421     Br2428   1.914       .  S
C2422      C2423   1.396       .  A
C2422      H2427   1.084       .  S
C2423      C2424   1.409       .  A
C2424     Br2425   1.919       .  S
C2429      C2430   1.413       .  A
C2429      C2434   1.407       .  A
C2429      H2436   1.084       .  S
C2430      C2431   1.407       .  A
C2431      C2432   1.396       .  A
C2431     Br2438   1.921       .  S
C2432      C2433   1.408       .  A
C2432      H2437   1.084       .  S
C2433      C2434   1.408       .  A
C2434     Br2435   1.919       .  S
C2439      C2440   1.416       .  A
C2439      C2444   1.397       .  A
C2439      H2446   1.083       .  S
C2440      C2441   1.409       .  A
C2441      C2442   1.409       .  A
C2441     Br2448   1.918       .  S
C2442      C2443   1.417       .  A
C2442      H2447   1.083       .  S
C2443      C2444   1.408       .  A
C2444     Br2445   1.924       .  S
C2449      C2450   1.403       .  A
C2449      C2454   1.400       .  A
C2449      H2456   1.084       .  S
C2450      C2451   1.409       .  A
C2451      C2452   1.396       .  A
C2451     Br2458   1.921       .  S
C2452      C2453   1.406       .  A
C2452      H2457   1.084       .  S
C2453      C2454   1.414       .  A
C2454     Br2455   1.921       .  S
C2459      C2460   1.405       .  A
C2459      C2464   1.395       .  A
C2459      H2466   1.084       .  S
C2460      C2461   1.416       .  A
C2461      C2462   1.403       .  A
C2461     Br2468   1.921       .  S
C2462      C2463   1.403       .  A
C2462      H2467   1.084       .  S
C2463      C2464   1.407       .  A
C2464     Br2465   1.921       .  S
C2469      C2470   1.405       .  A
C2469      C2474   1.394       .  A
C2469      H2476   1.083       .  S
C2470      C2471   1.423       .  A
C2471      C2472   1.402       .  A
C2471     Br2478   1.916       .  S
C2472      C2473   1.396       .  A
C2472      H2477   1.084       .  S
C2473      C2474   1.408       .  A
C2474     Br2475   1.920       .  S
C2479      C2480   1.412       .  A
C2479      C2484   1.403       .  A
C2479      H2486   1.084       .  S
C2480      C2481   1.406       .  A
C2481      C2482   1.394       .  A
C2481     Br2488   1.921       .  S
C2482      C2483   1.409       .  A
C2482      H2487   1.084       .  S
C2483      C2484   1.407       .  A
C2484     Br2485   1.918       .  S
C2489      C2490   1.405       .  A
C2489      C2494   1.399       .  A
C2489      H2496   1.084       .  S
C2490      C2491   1.414       .  A
C2491      C2492   1.402       .  A
C2491     Br2498   1.920       .  S
C2492      C2493   1.403       .  A
C2492      H2497   1.084       .  S
C2493      C2494   1.412       .  A
C2494     Br2495   1.922       .  S
C2499      C2500   1.406       .  A
C2499      C2504   1.403       .  A
C2499      H2506   1.082       .  S
C2500      C2501   1.417       .  A
C2502      H2507   1.082       .  S
C2503      C2504   1.413       .  A
C2504     Br2505   1.921       .  S
C2509      C2510   1.418       .  A
C2509      C2514   1.389       .  A
C2509      H2516   1.083       .  S
C2510      C2511   1.405       .  A
C2511      C2512   1.403       .  A
C2511     Br2518   1.918       .  S
C2512      C2513   1.416       .  A
C2512      H2517   1.083       .  S
C2513      C2514   1.400       .  A
C2514     Br2515   1.924       .  S
C2519      C2520   1.403       .  A
C2519      C2524   1.398       .  A
C2519      H2526   1.084       .  S
C2520      C2521   1.412       .  A
C2521      C2522   1.401       .  A
C2521     Br2528   1.919       .  S
C2522      C2523   1.405       .  A
C2522      H2527   1.083       .  S
C2523      C2524   1.419       .  A
C2524     Br2525   1.926       .  S
C2529      C2530   1.406       .  A
C2529      C2534   1.402       .  A
C2529      H2536   1.083       .  S
C2530      C2531   1.418       .  A
C2531      C2532   1.402       .  A
C2531     Br2538   1.923       .  S
C2532      C2533   1.403       .  A
C2532      H2537   1.083       .  S
C2533      C2534   1.414       .  A
C2534     Br2535   1.920       .  S
C2539      C2540   1.405       .  A
C2539      C2544   1.396       .  A
C2539      H2546   1.085       .  S
C2540      C2541   1.402       .  A
C2541      C2542   1.400       .  A
C2541     Br2548   1.918   1_455  S
C2542      C2543   1.412       .  A
C2542      H2547   1.084       .  S
C2543      C2544   1.412       .  A
C2544     Br2545   1.923       .  S
C2549      C2550   1.411       .  A
C2549      C2554   1.403       .  A
C2549      H2556   1.084       .  S
C2550      C2551   1.406       .  A
C2551      C2552   1.395       .  A
C2551     Br2558   1.921       .  S
C2552      C2553   1.410       .  A
C2552      H2557   1.084       .  S
C2553      C2554   1.407       .  A
C2554     Br2555   1.918   1_455  S
C2559      C2560   1.415       .  A
C2559      C2564   1.406       .  A
C2559      H2566   1.083       .  S
C2560      C2561   1.403       .  A
C2561      C2562   1.392       .  A
C2561     Br2568   1.924       .  S
C2562      C2563   1.416       .  A
C2562      H2567   1.083       .  S
C2563      C2564   1.408       .  A
C2564     Br2565   1.918       .  S
C2569      C2570   1.401       .  A
C2569      C2574   1.410       .  A
C2569      H2576   1.083       .  S
C2570      C2571   1.411       .  A
C2571      C2572   1.395       .  A
C2571     Br2578   1.918       .  S
C2572      C2573   1.403       .  A
C2572      H2577   1.083       .  S
C2573      C2574   1.423       .  A
C2574     Br2575   1.916       .  S
C2579      C2580   1.405       .  A
C2579      C2584   1.394       .  A
C2579      H2586   1.082       .  S
C2580      C2581   1.415       .  A
C2581      C2582   1.404       .  A
C2581     Br2588   1.921       .  S
C2582      C2583   1.401       .  A
C2582      H2587   1.084       .  S
C2583      C2584   1.409       .  A
C2584     Br2585   1.922       .  S
C2589      C2590   1.405       .  A
C2589      C2594   1.397       .  A
C2589      H2596   1.083       .  S
C2590      C2591   1.416       .  A
C2591      C2592   1.393       .  A
C2591     Br2598   1.926       .  S
C2592      C2593   1.403       .  A
C2592      H2597   1.084       .  S
C2593      C2594   1.414       .  A
C2594     Br2595   1.922       .  S
C2599      C2600   1.389       .  A
C2599      C2604   1.393       .  A
C2599      H2606   1.084       .  S
C2600      C2601   1.425       .  A
C2601      C2602   1.413       .  A
C2601     Br2608   1.921       .  S
C2602      C2603   1.404       .  A
C2602      H2607   1.083       .  S
C2603      C2604   1.431       .  A
C2604     Br2605   1.922       .  S
C2609      C2610   1.406       .  A
C2609      C2614   1.404       .  A
C2609      H2616   1.084       .  S
C2610      C2611   1.420       .  A
C2611      C2612   1.403       .  A
C2611     Br2618   1.922       .  S
C2612      C2613   1.402       .  A
C2612      H2617   1.083       .  S
C2613      C2614   1.416       .  A
C2614     Br2615   1.920       .  S
C2619      C2624   1.398       .  A
C2619      H2626   1.083       .  S
C2620      C2621   1.410   1_556  A
C2621      C2622   1.398       .  A
C2621     Br2628   1.920       .  S
C2622      H2627   1.083       .  S
C2623      C2624   1.406       .  A
C2624     Br2625   1.920       .  S
C2629      C2630   1.401       .  A
C2629      C2634   1.407       .  A
C2629      H2636   1.083       .  S
C2630      C2631   1.430       .  A
C2631      C2632   1.390       .  A
C2631     Br2638   1.922       .  S
C2632      C2633   1.386       .  A
C2632      H2637   1.084       .  S
C2633      C2634   1.420       .  A
C2634     Br2635   1.920       .  S
C2639      C2640   1.412       .  A
C2639      C2644   1.403       .  A
C2639      H2646   1.084       .  S
C2640      C2641   1.405       .  A
C2641      C2642   1.391       .  A
C2641     Br2648   1.921       .  S
C2642      C2643   1.408       .  A
C2642      H2647   1.084       .  S
C2643      C2644   1.407       .  A
C2644     Br2645   1.918       .  S
C2649      C2650   1.394       .  A
C2649      C2654   1.402       .  A
C2649      H2656   1.084       .  S
C2650      C2651   1.411       .  A
C2651      C2652   1.398       .  A
C2651     Br2658   1.918       .  S
C2652      C2653   1.404       .  A
C2652      H2657   1.083       .  S
C2653      C2654   1.425       .  A
C2654     Br2655   1.913       .  S
C2659      C2660   1.402       .  A
C2659      C2664   1.401       .  A
C2660      C2661   1.417       .  A
C2661      C2662   1.398       .  A
C2661     Br2668   1.922       .  S
C2662      C2663   1.403       .  A
C2662      H2667   1.083       .  S
C2663      C2664   1.424       .  A
C2664     Br2665   1.925   1_556  S
C2669      C2674   1.394       .  A
C2669      H2676   1.084       .  S
C2670      C2671   1.410       .  A
C2671      C2672   1.396   1_556  A
C2671     Br2678   1.922       .  S
C2672      H2677   1.083       .  S
C2673      C2674   1.419       .  A
C2674     Br2675   1.924       .  S
C2679      C2680   1.405       .  A
C2679      C2684   1.398       .  A
C2679      H2686   1.083       .  S
C2680      C2681   1.413       .  A
C2681      C2682   1.398       .  A
C2681     Br2688   1.923       .  S
C2682      C2683   1.404       .  A
C2682      H2687   1.084       .  S
C2683      C2684   1.410       .  A
C2684     Br2685   1.919       .  S
C2689      C2690   1.400       .  A
C2689      C2694   1.396       .  A
C2689      H2696   1.084       .  S
C2690      C2691   1.402       .  A
C2691      C2692   1.396       .  A
C2691     Br2698   1.918       .  S
C2692      C2693   1.408       .  A
C2692      H2697   1.084       .  S
C2693      C2694   1.415       .  A
C2694     Br2695   1.923       .  S
C2699      C2700   1.404       .  A
C2699      C2704   1.387       .  A
C2699      H2706   1.083       .  S
C2700      C2701   1.415       .  A
C2701      C2702   1.400       .  A
C2701     Br2708   1.921       .  S
C2702      C2703   1.406       .  A
C2702      H2707   1.083       .  S
C2703      C2704   1.414       .  A
C2704     Br2705   1.927       .  S
C2709      C2710   1.410       .  A
C2709      C2714   1.402       .  A
C2709      H2716   1.083       .  S
C2710      C2711   1.406       .  A
C2711      C2712   1.394       .  A
C2711     Br2718   1.921       .  S
C2712      C2713   1.409       .  A
C2712      H2717   1.084       .  S
C2713      C2714   1.408       .  A
C2714     Br2715   1.919       .  S
C2719      C2720   1.406       .  A
C2719      C2724   1.401       .  A
C2719      H2726   1.084       .  S
C2720      C2721   1.399       .  A
C2721      C2722   1.398       .  A
C2721     Br2728   1.918       .  S
C2722      C2723   1.416       .  A
C2722      H2727   1.083       .  S
C2723      C2724   1.413       .  A
C2724     Br2725   1.920       .  S
C2729      C2730   1.402       .  A
C2729      C2734   1.399       .  A
C2729      H2736   1.084       .  S
C2730      C2731   1.412       .  A
C2731      C2732   1.399       .  A
C2731     Br2738   1.920       .  S
C2732      C2733   1.406       .  A
C2732      H2737   1.083       .  S
C2733      C2734   1.419       .  A
C2734     Br2735   1.925       .  S
C2739      C2740   1.415       .  A
C2739      C2744   1.403       .  A
C2739      H2746   1.083       .  S
C2740      C2741   1.412       .  A
C2741      C2742   1.400       .  A
C2741     Br2748   1.922       .  S
C2742      C2743   1.415       .  A
C2742      H2747   1.084       .  S
C2743      C2744   1.409       .  A
C2744     Br2745   1.919       .  S
C2749      C2750   1.415       .  A
C2749      C2754   1.397       .  A
C2749      H2756   1.084       .  S
C2750      C2751   1.408       .  A
C2751      C2752   1.403       .  A
C2751     Br2758   1.919       .  S
C2752      C2753   1.414       .  A
C2752      H2757   1.083       .  S
C2753      C2754   1.408       .  A
C2754     Br2755   1.922       .  S
C2759      C2760   1.405       .  A
C2759      C2764   1.395       .  A
C2759      H2766   1.084       .  S
C2760      C2761   1.412       .  A
C2761      C2762   1.392       .  A
C2761     Br2768   1.925       .  S
C2762      C2763   1.407       .  A
C2762      H2767   1.083       .  S
C2763      C2764   1.414       .  A
C2764     Br2765   1.922       .  S
C2769      C2770   1.414       .  A
C2769      C2774   1.402       .  A
C2769      H2776   1.083       .  S
C2770      C2771   1.407       .  A
C2771      C2772   1.392       .  A
C2772      C2773   1.414       .  A
C2773      C2774   1.409       .  A
C2774     Br2775   1.920       .  S
C2779      C2780   1.416       .  A
C2779      C2784   1.409       .  A
C2779      H2786   1.083       .  S
C2780      C2781   1.407       .  A
C2781      C2782   1.396       .  A
C2781     Br2788   1.923       .  S
C2782      C2783   1.417       .  A
C2782      H2787   1.083       .  S
C2783      C2784   1.411       .  A
C2784     Br2785   1.918       .  S
C2789      C2794   1.403       .  A
C2789      H2796   1.084       .  S
C2791      C2792   1.392       .  A
C2792      C2793   1.404       .  A
C2792      H2797   1.083       .  S
C2793      C2794   1.423       .  A
C2794     Br2795   1.919       .  S
C2799      C2800   1.395       .  A
C2799      C2804   1.400       .  A
C2799      H2806   1.084       .  S
C2800      C2801   1.408       .  A
C2801      C2802   1.390       .  A
C2801     Br2808   1.919       .  S
C2802      C2803   1.403       .  A
C2802      H2807   1.083       .  S
C2803      C2804   1.420       .  A
C2804     Br2805   1.910       .  S
C2809      C2810   1.409       .  A
C2809      C2814   1.397       .  A
C2809      H2816   1.084       .  S
C2810      C2811   1.408   1_565  A
C2811      C2812   1.405   1_545  A
C2811     Br2818   1.918       .  S
C2812      C2813   1.411       .  A
C2812      H2817   1.084   1_565  S
C2813      C2814   1.408       .  A
C2814     Br2815   1.921       .  S
C2819      C2820   1.413       .  A
C2819      C2824   1.400   1_565  A
C2819      H2826   1.084   1_565  S
C2820      C2821   1.409       .  A
C2821      C2822   1.396       .  A
C2821     Br2828   1.921       .  S
C2822      C2823   1.406       .  A
C2822      H2827   1.083       .  S
C2823      C2824   1.404   1_565  A
C2824     Br2825   1.918       .  S
C2829      C2830   1.408       .  A
C2829      C2834   1.402       .  A
C2829      H2836   1.083       .  S
C2830      C2831   1.418   1_655  A
C2831      C2832   1.396       .  A
C2831     Br2838   1.924       .  S
C2832      C2833   1.402   1_455  A
C2832      H2837   1.084       .  S
C2833      C2834   1.412       .  A
C2834     Br2835   1.920       .  S
C2839      C2840   1.416       .  A
C2839      C2844   1.392       .  A
C2839      H2846   1.083       .  S
C2840      C2841   1.408       .  A
C2841      C2842   1.405       .  A
C2841     Br2848   1.918       .  S
C2842      C2843   1.415       .  A
C2842      H2847   1.083       .  S
C2843      C2844   1.405       .  A
C2844     Br2845   1.925       .  S
C2849      C2850   1.403       .  A
C2849      C2854   1.404       .  A
C2849      H2856   1.083       .  S
C2850      C2851   1.415       .  A
C2851      C2852   1.404       .  A
C2851     Br2858   1.921       .  S
C2852      C2853   1.406       .  A
C2852      H2857   1.083       .  S
C2853      C2854   1.423       .  A
C2854     Br2855   1.922       .  S
C2859      C2860   1.411       .  A
C2859      C2864   1.406       .  A
C2859      H2866   1.083       .  S
C2860      C2861   1.420   1_655  A
C2861      C2862   1.401       .  A
C2861     Br2868   1.922       .  S
C2862      C2863   1.400   1_455  A
C2862      H2867   1.084       .  S
C2863      C2864   1.408       .  A
C2864     Br2865   1.918       .  S
C2869      C2870   1.416       .  A
C2869      C2874   1.410       .  A
C2869      H2876   1.083       .  S
C2870      C2871   1.408       .  A
C2871      C2872   1.395       .  A
C2871     Br2878   1.925       .  S
C2872      C2873   1.416       .  A
C2872      H2877   1.083       .  S
C2873      C2874   1.412       .  A
C2874     Br2875   1.918       .  S
C2879      C2884   1.397       .  A
C2881      C2882   1.401   1_655  A
C2881     Br2888   1.918       .  S
C2882      C2883   1.411       .  A
C2882      H2887   1.084   1_455  S
C2883      C2884   1.408       .  A
C2884     Br2885   1.922       .  S
C2889      C2890   1.403       .  A
C2889      C2894   1.392       .  A
C2889      H2896   1.083       .  S
C2890      C2891   1.424       .  A
C2891      C2892   1.405       .  A
C2891     Br2898   1.921       .  S
C2892      C2893   1.398       .  A
C2892      H2897   1.083       .  S
C2893      C2894   1.409       .  A
C2894     Br2895   1.920       .  S
C2899      C2900   1.403       .  A
C2899      C2904   1.402       .  A
C2900      C2901   1.415       .  A
C2901      C2902   1.399       .  A
C2901     Br2908   1.922       .  S
C2902      C2903   1.404       .  A
C2902      H2907   1.083       .  S
C2903      C2904   1.421       .  A
C2904     Br2905   1.924       .  S
C2909      C2910   1.409       .  A
C2909      C2914   1.403       .  A
C2909      H2916   1.083       .  S
C2910      C2911   1.419   1_455  A
C2911      C2912   1.398       .  A
C2911     Br2918   1.924       .  S
C2912      C2913   1.403   1_655  A
C2912      H2917   1.084       .  S
C2913      C2914   1.411       .  A
C2914     Br2915   1.919       .  S
C2919      C2920   1.402       .  A
C2919      C2924   1.394       .  A
C2919      H2926   1.084       .  S
C2920      C2921   1.411       .  A
C2921      C2922   1.400       .  A
C2921     Br2928   1.920       .  S
C2922      C2923   1.406       .  A
C2922      H2927   1.083       .  S
C2923      C2924   1.416       .  A
C2924     Br2925   1.925       .  S
C2929      C2930   1.407       .  A
C2929      C2934   1.397       .  A
C2929      H2936   1.083       .  S
C2930      C2931   1.418   1_455  A
C2931      C2932   1.393       .  A
C2931     Br2938   1.925       .  S
C2932      C2933   1.401   1_655  A
C2932      H2937   1.084       .  S
C2933      C2934   1.408       .  A
C2934     Br2935   1.920       .  S
C2939      C2940   1.406       .  A
C2939      C2944   1.402       .  A
C2939      H2946   1.084       .  S
C2940      C2941   1.416       .  A
C2941      C2942   1.395       .  A
C2941     Br2948   1.924       .  S
C2942      C2943   1.400       .  A
C2942      H2947   1.084       .  S
C2943      C2944   1.412       .  A
C2944     Br2945   1.918       .  S
C2949      C2950   1.413       .  A
C2949      C2954   1.403   1_655  A
C2949      H2956   1.097       .  S
C2950      C2951   1.414       .  A
C2951      C2952   1.393       .  A
C2951     Br2958   1.923       .  S
C2952      C2953   1.403   1_655  A
C2952      H2957   1.100       .  S
C2953      C2954   1.404       .  A
C2954     Br2955   1.917       .  S
C2959      C2960   1.406       .  A
C2959      C2964   1.399       .  A
C2959      H2966   1.083       .  S
C2960      C2961   1.425       .  A
C2961      C2962   1.408       .  A
C2961     Br2968   1.919       .  S
C2962      C2963   1.399       .  A
C2962      H2967   1.083       .  S
C2963      C2964   1.411       .  A
C2969      C2970   1.405       .  A
C2969      C2974   1.399       .  A
C2969      H2976   1.083       .  S
C2970      C2971   1.418       .  A
C2971      C2972   1.397       .  A
C2971     Br2978   1.925       .  S
C2972      C2973   1.400       .  A
C2972      H2977   1.084       .  S
C2973      C2974   1.413       .  A
C2974     Br2975   1.920       .  S
C2979      C2980   1.415       .  A
C2979      C2984   1.409       .  A
C2979      H2986   1.083       .  S
C2980      C2981   1.408       .  A
C2981      C2982   1.394       .  A
C2981     Br2988   1.925       .  S
C2982      C2983   1.414       .  A
C2982      H2987   1.083       .  S
C2983      C2984   1.412       .  A
C2984     Br2985   1.919       .  S
C2989      C2990   1.405       .  A
C2989      C2994   1.402       .  A
C2989      H2996   1.084       .  S
C2990      C2991   1.424       .  A
C2991      C2992   1.404       .  A
C2991     Br2998   1.925       .  S
C2992      C2993   1.402       .  A
C2992      H2997   1.083       .  S
C2993      C2994   1.412       .  A
C2994     Br2995   1.914       .  S
C2999      C3000   1.408       .  A
C2999      C3004   1.395       .  A
C2999      H3006   1.083       .  S
C3000      C3001   1.415       .  A
C3001      C3002   1.402       .  A
C3001     Br3008   1.921       .  S
C3002      C3003   1.406       .  A
C3002      H3007   1.083       .  S
C3003      C3004   1.410       .  A
C3004     Br3005   1.922       .  S
C3009      C3010   1.415       .  A
C3009      C3014   1.410       .  A
C3009      H3016   1.083       .  S
C3010      C3011   1.409       .  A
C3011      C3012   1.397       .  A
C3011     Br3018   1.923       .  S
C3012      C3013   1.417       .  A
C3012      H3017   1.083       .  S
C3013      C3014   1.408       .  A
C3014     Br3015   1.916       .  S
C3019      C3020   1.411       .  A
C3019      C3024   1.401       .  A
C3019      H3026   1.084       .  S
C3020      C3021   1.408       .  A
C3021      C3022   1.395       .  A
C3021     Br3028   1.922       .  S
C3022      C3023   1.409       .  A
C3022      H3027   1.084       .  S
C3023      C3024   1.405       .  A
C3024     Br3025   1.917       .  S
C3029      C3030   1.403       .  A
C3029      C3034   1.394       .  A
C3029      H3036   1.083       .  S
C3030      C3031   1.421       .  A
C3031      C3032   1.403       .  A
C3031     Br3038   1.920       .  S
C3032      C3033   1.398       .  A
C3032      H3037   1.084       .  S
C3033      C3034   1.409       .  A
C3034     Br3035   1.919       .  S
C3039      C3040   1.405       .  A
C3039      C3044   1.397       .  A
C3039      H3046   1.083       .  S
C3040      C3041   1.421       .  A
C3041      C3042   1.400       .  A
C3041     Br3048   1.924   1_556  S
C3042      C3043   1.403       .  A
C3042      H3047   1.083   1_556  S
C3043      C3044   1.415       .  A
C3049      C3050   1.404   1_565  A
C3049      C3054   1.397       .  A
C3049      H3056   1.084       .  S
C3050      C3051   1.415       .  A
C3051      C3052   1.399       .  A
C3051     Br3058   1.922       .  S
C3052      C3053   1.405       .  A
C3052      H3057   1.084       .  S
C3053      C3054   1.418   1_545  A
C3054     Br3055   1.924       .  S
C3059      C3060   1.400   1_554  A
C3059      C3064   1.397       .  A
C3059      H3066   1.083   1_545  S
C3061      C3062   1.399       .  A
C3061     Br3068   1.922       .  S
C3062      C3063   1.405       .  A
C3062      H3067   1.083       .  S
C3064     Br3065   1.922   1_545  S
C3069      C3070   1.409       .  A
C3069      C3074   1.402   1_565  A
C3069      H3076   1.084   1_565  S
C3070      C3071   1.406       .  A
C3071      C3072   1.395       .  A
C3071     Br3078   1.921       .  S
C3072      C3073   1.409       .  A
C3072      H3077   1.084       .  S
C3073      C3074   1.407   1_565  A
C3074     Br3075   1.918       .  S
C3079      C3080   1.411   1_545  A
C3079      C3084   1.399       .  A
C3079      H3086   1.084       .  S
C3080      C3081   1.407       .  A
C3081      C3082   1.395       .  A
C3081     Br3088   1.922       .  S
C3082      C3083   1.409   1_565  A
C3082      H3087   1.084       .  S
C3083      C3084   1.404       .  A
C3084     Br3085   1.918       .  S
C3089      C3090   1.403       .  A
C3089      C3094   1.397       .  A
C3089      H3096   1.083       .  S
C3090      C3091   1.412       .  A
C3091      C3092   1.400       .  A
C3091     Br3098   1.921       .  S
C3092      C3093   1.407       .  A
C3092      H3097   1.083       .  S
C3093      C3094   1.417       .  A
C3094     Br3095   1.925       .  S
C3099      H3106   1.084       .  S
C3100      C3101   1.416       .  A
C3101      C3102   1.400       .  A
C3101     Br3108   1.922       .  S
C3102      C3103   1.404       .  A
C3102      H3107   1.083       .  S
C3103      C3104   1.425       .  A
C3109      C3110   1.416       .  A
C3109      C3114   1.408       .  A
C3109      H3116   1.083       .  S
C3110      C3111   1.407       .  A
C3111      C3112   1.392       .  A
C3111     Br3118   1.925       .  S
C3112      C3113   1.415       .  A
C3112      H3117   1.083       .  S
C3113      C3114   1.409       .  A
C3114     Br3115   1.919       .  S
C3119      C3120   1.409       .  A
C3119      C3124   1.400       .  A
C3119      H3126   1.083       .  S
C3120      C3121   1.417       .  A
C3121      C3122   1.396       .  A
C3121     Br3128   1.925       .  S
C3122      C3123   1.405       .  A
C3122      H3127   1.084       .  S
C3123      C3124   1.410       .  A
C3124     Br3125   1.920       .  S
C3129      C3130   1.404       .  A
C3129      C3134   1.400       .  A
C3129      H3136   1.083       .  S
C3130      C3131   1.424       .  A
C3131      C3132   1.402       .  A
C3131     Br3138   1.924       .  S
C3132      C3133   1.401       .  A
C3132      H3137   1.084       .  S
C3133      C3134   1.415       .  A
C3134     Br3135   1.919       .  S
C3139      C3140   1.396       .  A
C3139      C3144   1.402       .  A
C3139      H3146   1.084       .  S
C3140      C3141   1.409       .  A
C3141      C3142   1.394       .  A
C3141     Br3148   1.920       .  S
C3142      C3143   1.405       .  A
C3142      H3147   1.083       .  S
C3143      C3144   1.421       .  A
C3144     Br3145   1.916       .  S
C3149      C3150   1.404       .  A
C3149      C3154   1.393       .  A
C3149      H3156   1.084       .  S
C3150      C3151   1.423       .  A
C3151      C3152   1.400       .  A
C3151     Br3158   1.913       .  S
C3152      C3153   1.393       .  A
C3152      H3157   1.084       .  S
C3153      C3154   1.408       .  A
C3159      C3160   1.417       .  A
C3159      C3164   1.409       .  A
C3159      H3166   1.083       .  S
C3160      C3161   1.407       .  A
C3161      C3162   1.393       .  A
C3161     Br3168   1.924       .  S
C3162      C3163   1.415       .  A
C3162      H3167   1.084       .  S
C3163      C3164   1.409       .  A
C3164     Br3165   1.919       .  S
C3169      C3170   1.402       .  A
C3169      C3174   1.394       .  A
C3169      H3176   1.083       .  S
C3170      C3171   1.415       .  A
C3171      C3172   1.402       .  A
C3171     Br3178   1.922       .  S
C3172      C3173   1.406       .  A
C3172      H3177   1.083       .  S
C3173      C3174   1.418       .  A
C3174     Br3175   1.926       .  S
C3179      C3180   1.402       .  A
C3179      C3184   1.396       .  A
C3179      H3186   1.084       .  S
C3180      C3181   1.408       .  A
C3181      C3182   1.395       .  A
C3181     Br3188   1.922       .  S
C3182      C3183   1.407       .  A
C3182      H3187   1.084       .  S
C3183      C3184   1.414       .  A
C3184     Br3185   1.922       .  S
C3189      C3190   1.402       .  A
C3189      C3194   1.399       .  A
C3189      H3196   1.084       .  S
C3190      C3191   1.406       .  A
C3191      C3192   1.398       .  A
C3191     Br3198   1.916       .  S
C3192      C3193   1.401       .  A
C3192      H3197   1.084       .  S
C3193      C3194   1.408       .  A
C3194     Br3195   1.917       .  S
C3199      C3200   1.404       .  A
C3199      C3204   1.397       .  A
C3199      H3206   1.083       .  S
C3200      C3201   1.413       .  A
C3201      C3202   1.396       .  A
C3201     Br3208   1.924       .  S
C3202      C3203   1.407       .  A
C3202      H3207   1.083       .  S
C3203      C3204   1.416       .  A
C3204     Br3205   1.923       .  S
C3209      C3210   1.405       .  A
C3209      C3214   1.393   1_556  A
C3209      H3216   1.084       .  S
C3210      C3211   1.421       .  A
C3211      C3212   1.401       .  A
C3211     Br3218   1.918       .  S
C3212      H3217   1.084   1_556  S
C3219      C3220   1.404       .  A
C3219      C3224   1.393       .  A
C3219      H3226   1.083       .  S
C3220      C3221   1.417       .  A
C3221      C3222   1.408       .  A
C3221     Br3228   1.922       .  S
C3222      C3223   1.403       .  A
C3222      H3227   1.083       .  S
C3223      C3224   1.409       .  A
C3224     Br3225   1.917       .  S
C3229      C3234   1.397       .  A
C3229      H3236   1.084       .  S
C3230      C3231   1.419   1_546  A
C3231      C3232   1.401       .  A
C3231     Br3238   1.923       .  S
C3232      H3237   1.084       .  S
C3233      C3234   1.418       .  A
C3234     Br3235   1.923       .  S
C3239      C3240   1.405       .  A
C3239      C3244   1.399       .  A
C3239      H3246   1.083       .  S
C3240      C3241   1.412       .  A
C3241      C3242   1.399       .  A
C3241     Br3248   1.922       .  S
C3242      C3243   1.408       .  A
C3242      H3247   1.083       .  S
C3243      C3244   1.415       .  A
C3244     Br3245   1.922       .  S
C3249      C3250   1.418       .  A
C3249      C3254   1.407       .  A
C3249      H3256   1.083       .  S
C3250      C3251   1.410       .  A
C3251      C3252   1.398       .  A
C3251     Br3258   1.921       .  S
C3252      C3253   1.415       .  A
C3252      H3257   1.084       .  S
C3253      C3254   1.407       .  A
C3254     Br3255   1.919       .  S
C3259      C3260   1.417       .  A
C3259      C3264   1.398       .  A
C3259      H3266   1.083       .  S
C3260      C3261   1.410       .  A
C3261      C3262   1.409       .  A
C3262      C3263   1.418       .  A
C3262      H3267   1.083       .  S
C3263      C3264   1.408       .  A
C3264     Br3265   1.923       .  S
C3269      C3270   1.407   1_565  A
C3269      C3274   1.400       .  A
C3269      H3276   1.083       .  S
C3270      C3271   1.419       .  A
C3271      C3272   1.399       .  A
C3271     Br3278   1.924       .  S
C3272      C3273   1.404       .  A
C3272      H3277   1.083       .  S
C3273      C3274   1.413   1_545  A
C3274     Br3275   1.921       .  S
C3279      C3280   1.408       .  A
C3279      C3284   1.399       .  A
C3279      H3286   1.083       .  S
C3280      C3281   1.417       .  A
C3281      C3282   1.400       .  A
C3281     Br3288   1.922       .  S
C3282      C3283   1.406       .  A
C3282      H3287   1.083       .  S
C3283      C3284   1.415       .  A
C3284     Br3285   1.924       .  S
C3289      C3290   1.414       .  A
C3289      C3294   1.402       .  A
C3289      H3296   1.083       .  S
C3290      C3291   1.407       .  A
C3291      C3292   1.394       .  A
C3291     Br3298   1.923       .  S
C3292      C3293   1.414       .  A
C3292      H3297   1.083       .  S
C3293      C3294   1.409       .  A
C3294     Br3295   1.920       .  S
C3299      C3300   1.399       .  A
C3299      C3304   1.393       .  A
C3299      H3306   1.084       .  S
C3300      C3301   1.422       .  A
C3301      C3302   1.407       .  A
C3301     Br3308   1.915       .  S
C3302      C3303   1.400       .  A
C3302      H3307   1.084       .  S
C3303      C3304   1.413       .  A
C3304     Br3305   1.915       .  S
C3309      C3310   1.396       .  A
C3309      C3314   1.399       .  A
C3309      H3316   1.084       .  S
C3310      C3311   1.409       .  A
C3311      C3312   1.392       .  A
C3311     Br3318   1.918       .  S
C3312      C3313   1.402       .  A
C3312      H3317   1.084       .  S
C3313      C3314   1.420       .  A
C3314     Br3315   1.914       .  S
C3319      C3320   1.403       .  A
C3319      C3324   1.405       .  A
C3319      H3326   1.084       .  S
C3320      C3321   1.416       .  A
C3321      C3322   1.398       .  A
C3321     Br3328   1.916       .  S
C3322      C3323   1.402       .  A
C3322      H3327   1.083       .  S
C3323      C3324   1.426       .  A
C3324     Br3325   1.924       .  S
