geometry optimzed in LAMMPS
_audit_creation_date              2020-11-30 
_audit_creation_method            'lammps2cif' 
_symmetry_space_group_name_H-M    'P1' 
_symmetry_Int_Tables_number       1 
_symmetry_cell_setting            triclinic 
loop_ 
_symmetry_equiv_pos_as_xyz 
  x,y,z 
_cell_length_a                    43.26567239 
_cell_length_b                    43.63801735647924 
_cell_length_c                    40.626294780821 
_cell_angle_alpha                 89.61485756524962 
_cell_angle_beta                  89.46569112866608 
_cell_angle_gamma                 121.4261583948032 
loop_ 
_atom_site_label 
_atom_site_type_symbol 
_atom_site_fract_x 
_atom_site_fract_y 
_atom_site_fract_z 
_atom_site_charge 
O1          O  0.95968429  0.67722231  0.94759219    -0.56600
C2          C  0.00183495  0.61549502  0.93365414     0.76000
O3          O  0.08107949  0.73375909  0.92318007    -0.57800
C4          C  0.96858426  0.70922391  0.95356117     0.76000
C5          C  0.03424290  0.69093179  0.01873086     0.78400
Cd6        Cd  0.02125533  0.68801511  0.94874878     1.37500
O7          O  0.98059436  0.62669371  0.92841089    -0.56600
O8          O  0.06047171  0.71017640  0.99907299    -0.55400
C9          C  0.06900307  0.73002662  0.89420244     0.78300
O10         O  0.00372109  0.67125341  0.00582346    -0.57800
O11         O  0.03247465  0.63796034  0.94527175    -0.56300
O12         O  0.00215242  0.73213072  0.95519470    -0.56200
O13         O  0.03559689  0.70752743  0.89081941    -0.55400
O14         O  0.00686392  0.35619497  0.92768231    -0.56600
C15         C  0.02633545  0.27998084  0.95348335     0.76000
O16         O  0.94046791  0.28548595  0.01052809    -0.57800
C17         C  0.98548579  0.36698294  0.93407316     0.76000
C18         C  0.91188024  0.24116521  0.91680644     0.78400
Cd19       Cd  0.97050206  0.29702765  0.95535744     1.37500
O20         O  0.02686511  0.30293579  0.93391086    -0.56600
O21         O  0.94199785  0.26432037  0.90397519    -0.55400
C22         C  0.96973586  0.30415975  0.02598947     0.78300
O23         O  0.90840151  0.24382456  0.94743583    -0.57800
O24         O  0.99886209  0.26320428  0.97229629    -0.56300
O25         O  0.95637483  0.34499730  0.94919588    -0.56200
O26         O  0.99853808  0.31996524  0.00878980    -0.55400
O27         O  0.97388653  0.28453033  0.36689036    -0.56600
C28         C  0.03840132  0.39265095  0.36143588     0.76000
O29         O  0.09263568  0.32877452  0.35808275    -0.57800
C30         C  0.96984735  0.25811375  0.35060676     0.76000
C31         C  0.04081645  0.33398753  0.27521771     0.78400
Cd32       Cd  0.03570556  0.32724697  0.34607635     1.37500
O33         O  0.01143316  0.36234165  0.36977551    -0.56600
O34         O  0.01552986  0.33356828  0.29149496    -0.55400
C35         C  0.08813744  0.32553114  0.38900533     0.78300
O36         O  0.06456930  0.33219238  0.29169250    -0.57800
O37         O  0.06436267  0.39267469  0.34691059    -0.56300
O38         O  0.99697023  0.26300893  0.33398683    -0.56200
O39         O  0.05927178  0.32251656  0.40013771    -0.55400
O40         O  0.99405809  0.61460473  0.36877907    -0.56600
C41         C  0.03289716  0.71516669  0.34410017     0.76000
O42         O  0.99519817  0.65357560  0.28677941    -0.57800
C43         C  0.97088523  0.58389477  0.35832238     0.76000
C44         C  0.91326208  0.64770859  0.38242452     0.78400
Cd45       Cd  0.96793948  0.64641814  0.34138033     1.37500
O46         O  0.02870946  0.68902906  0.36140520    -0.56600
O47         O  0.94295361  0.65377827  0.39395261    -0.55400
C48         C  0.96704064  0.64423085  0.27036399     0.78300
O49         O  0.90889319  0.64151884  0.35194664    -0.57800
O50         O  0.00572944  0.71050479  0.32825514    -0.56300
O51         O  0.94593342  0.58192905  0.34084869    -0.56200
O52         O  0.93827011  0.63479672  0.28672591    -0.55400
O53         O  0.35441358  0.36176113  0.60193848    -0.56600
C54         C  0.28527145  0.25565076  0.62659383     0.76000
O55         O  0.27231847  0.32960813  0.68719588    -0.57800
C56         C  0.36134445  0.39194635  0.61240369     0.76000
C57         C  0.24114995  0.32588702  0.59011870     0.78400
Cd58       Cd  0.29548035  0.32612471  0.63175150     1.37500
O59         O  0.31479388  0.28356120  0.61780175    -0.56600
O60         O  0.26371180  0.31813873  0.57922758    -0.55400
C61         C  0.29650817  0.32796744  0.70306192     0.78300
O62         O  0.24325364  0.33338745  0.62037487    -0.57800
O63         O  0.25996549  0.26016541  0.63590660    -0.56300
O64         O  0.33777115  0.39172858  0.63116776    -0.56200
O65         O  0.32015502  0.32621403  0.68607742    -0.55400
O66         O  0.67978755  0.69485646  0.61224136    -0.56600
C67         C  0.62872777  0.58670300  0.60044409     0.76000
O68         O  0.74547544  0.63752406  0.60697650    -0.57800
C69         C  0.71178308  0.72163670  0.61392535     0.76000
C70         C  0.69799545  0.64755547  0.69025365     0.78400
Cd71       Cd  0.69668143  0.64939228  0.61876097     1.37500
O72         O  0.63683489  0.61781530  0.59108558    -0.56600
O73         O  0.72305792  0.64848528  0.67310064    -0.55400
C74         C  0.74874768  0.64539834  0.57658215     0.78300
O75         O  0.67236765  0.64636126  0.67449879    -0.57800
O76         O  0.65219121  0.58473364  0.61707647    -0.56300
O77         O  0.73692852  0.71504004  0.61503772    -0.56200
O78         O  0.72779462  0.65499395  0.56536162    -0.55400
O79         O  0.35896599  0.36121522  0.04491727    -0.56600
C80         C  0.25689241  0.28817103  0.02629399     0.76000
O81         O  0.33249077  0.27200565  0.97196678    -0.57800
C82         C  0.39079256  0.36712306  0.04239142     0.76000
C83         C  0.32269311  0.24626076  0.07423950     0.78400
Cd84       Cd  0.32799379  0.29837268  0.02538135     1.37500
O85         O  0.28251107  0.31341263  0.04211196    -0.56600
O86         O  0.30826537  0.26480125  0.07802633    -0.55400
C87         C  0.33225456  0.29579925  0.95403873     0.78300
O88         O  0.33973470  0.25099402  0.04728436    -0.57800
O89         O  0.26379446  0.26688792  0.01156702    -0.56300
O90         O  0.39364772  0.34112548  0.03298811    -0.56200
O91         O  0.33179414  0.32082562  0.96903442    -0.55400
O92         O  0.62102074  0.63822787  0.03330947    -0.56600
C93         C  0.72900263  0.70025394  0.01660882     0.76000
O94         O  0.66200694  0.71885950  0.95023991    -0.57800
C95         C  0.59196189  0.63509361  0.02309820     0.76000
C96         C  0.66634684  0.75430251  0.04782554     0.78400
Cd97       Cd  0.66198507  0.69761014  0.00740752     1.37500
O98         O  0.70013086  0.67668062  0.03106595    -0.56600
O99         O  0.66604392  0.72729836  0.05971941    -0.55400
C100        C  0.66301017  0.69336394  0.93649039     0.78300
O101        O  0.66515846  0.75581717  0.01675397    -0.57800
O102        O  0.72741309  0.72407307  0.00009121    -0.56300
O103        O  0.59514291  0.66113837  0.00631612    -0.56200
O104        O  0.66262884  0.67002621  0.95536710    -0.55400
O105        O  0.36802627  0.00379905  0.69557705    -0.56600
C106        C  0.29313120  0.02532042  0.66972318     0.76000
O107        O  0.27575582  0.93182093  0.62347386    -0.57800
C108        C  0.37818106  0.98208838  0.68898736     0.76000
C109        C  0.26240188  0.92049768  0.72840710     0.78400
Cd110      Cd  0.30655512  0.96735593  0.67410247     1.37500
O111        O  0.32447046  0.03075903  0.67442984    -0.56600
O112        O  0.28362700  0.95399039  0.73126134    -0.55400
C113        C  0.29942259  0.95529771  0.60391232     0.78300
O114        O  0.26092338  0.90781162  0.70004857    -0.57800
O115        O  0.26735847  0.99290198  0.66939714    -0.56300
O116        O  0.35486099  0.95260199  0.67623907    -0.56200
O117        O  0.32620377  0.98195034  0.61699855    -0.55400
O118        O  0.63630055  0.97604947  0.71952646    -0.56600
C119        C  0.70008712  0.94168473  0.69397664     0.76000
O120        O  0.71136647  0.03686275  0.63679102    -0.57800
C121        C  0.62653457  0.99637258  0.70740568     0.76000
C122        C  0.75323213  0.06204196  0.73018385     0.78400
Cd123      Cd  0.69574360  0.00515358  0.69128710     1.37500
O124        O  0.67696977  0.94418231  0.71110780    -0.56600
O125        O  0.72466684  0.03652049  0.74337341    -0.55400
C126        C  0.69239410  0.00843005  0.62057416     0.78300
O127        O  0.75575809  0.06106450  0.69923182    -0.57800
O128        O  0.72352646  0.96974601  0.67858751    -0.56300
O129        O  0.64964361  0.02230391  0.68953211    -0.56200
O130        O  0.67511895  0.97950078  0.63703266    -0.55400
O131        O  0.37608951  0.98914204  0.26216606    -0.56600
C132        C  0.26636803  0.95091491  0.27498964     0.76000
O133        O  0.34392563  0.04539931  0.33213260    -0.57800
C134        C  0.40527221  0.01577415  0.27250586     0.76000
C135        C  0.33733162  0.05813642  0.22804058     0.78400
Cd136      Cd  0.33755697  0.01267357  0.28006972     1.37500
O137        O  0.29395915  0.94797743  0.27237260    -0.56600
O138        O  0.33780922  0.02990544  0.22247699    -0.55400
C139        C  0.33460668  0.01820729  0.35049780     0.78300
O140        O  0.33764265  0.06624413  0.25803413    -0.57800
O141        O  0.27202951  0.98222345  0.27816508    -0.56300
O142        O  0.40312632  0.04102347  0.28509051    -0.56200
O143        O  0.32703019  0.98952786  0.33622002    -0.55400
O144        O  0.63636966  0.97868727  0.27776171    -0.56600
C145        C  0.74200968  0.01142082  0.29355311     0.76000
O146        O  0.66175784  0.91888124  0.35278028    -0.57800
C147        C  0.60506547  0.95222439  0.28462086     0.76000
C148        C  0.66663714  0.89957075  0.25395554     0.78400
Cd149      Cd  0.66929604  0.95100237  0.29964691     1.37500
O150        O  0.71489817  0.01487547  0.29015270    -0.56600
O151        O  0.67339807  0.93021650  0.24451050    -0.55400
C152        C  0.66631801  0.94469414  0.37041994     0.78300
O153        O  0.66131206  0.89274534  0.28453711    -0.57800
O154        O  0.73551707  0.97984347  0.29772311    -0.56300
O155        O  0.60346508  0.92506305  0.29766007    -0.56200
O156        O  0.67191823  0.97257793  0.35533882    -0.55400
C157        C  0.53987981  0.98485511  0.26566193     0.19900
C158        C  0.54206454  0.01756718  0.27131195    -0.18200
C159        C  0.51139837  0.02028885  0.26874966    -0.10500
C160        C  0.47768606  0.99014997  0.26037628     0.22100
C161        C  0.47592025  0.95777288  0.25350614    -0.19800
C162        C  0.50662175  0.95507401  0.25612107    -0.10700
C163        C  0.44367295  0.99089910  0.25897325    -0.14800
C164        C  0.44023635  0.01760774  0.27110084    -0.28700
C165        C  0.57291033  0.98299422  0.26962916    -0.03000
C166        C  0.57185650  0.95268883  0.27830327    -0.39500
H167        H  0.56751847  0.04102105  0.27820434     0.13300
H168        H  0.51464397  0.04614704  0.27328547     0.12900
H169        H  0.45055436  0.93429067  0.24648650     0.12300
H170        H  0.50422088  0.92974022  0.25043398     0.12600
H171        H  0.41985155  0.96752051  0.24906686     0.15300
H172        H  0.46294894  0.04093181  0.28206493     0.14100
H173        H  0.59899789  0.00794071  0.26751041     0.11800
H174        H  0.54610603  0.92796664  0.28275763     0.13800
C175        C  0.67018096  0.97106176  0.46164579     0.19900
C176        C  0.67383016  0.00153897  0.47699578    -0.18200
C177        C  0.67464834  0.00418843  0.51127568    -0.10500
C178        C  0.67187762  0.97629730  0.53101530     0.22100
C179        C  0.66743439  0.94549734  0.51582732    -0.19800
C180        C  0.66687812  0.94292251  0.48153843    -0.10700
C181        C  0.67284269  0.97797134  0.56745084    -0.14800
C182        C  0.69069341  0.00880736  0.58432400    -0.28700
C183        C  0.67044181  0.97038135  0.42501918    -0.03000
C184        C  0.66522337  0.94245345  0.40670211    -0.39500
H185        H  0.67611407  0.02351035  0.46237909     0.13300
H186        H  0.67700947  0.02785777  0.52218266     0.12900
H187        H  0.66498718  0.92353471  0.53057919     0.12300
H188        H  0.66415070  0.91896827  0.47109063     0.12600
H189        H  0.65999171  0.95253239  0.58089060     0.15300
H190        H  0.70545235  0.03452717  0.57150119     0.14100
H191        H  0.67521022  0.99452853  0.41233938     0.11800
H192        H  0.66002983  0.91759972  0.41791096     0.13800
C193        C  0.31851163  0.98834273  0.44224630     0.19900
C194        C  0.30353443  0.95465879  0.45809545    -0.18200
C195        C  0.30221151  0.95171208  0.49248824    -0.10500
C196        C  0.31598065  0.98256326  0.51184149     0.22100
C197        C  0.33073450  0.01617471  0.49607717    -0.19800
C198        C  0.33189955  0.01913213  0.46174595    -0.10700
C199        C  0.31764146  0.98143600  0.54831130    -0.14800
C200        C  0.29599053  0.95261269  0.56766797    -0.28700
C201        C  0.32052885  0.98981117  0.40556298    -0.03000
C202        C  0.33273728  0.01970163  0.38675063    -0.39500
H203        H  0.29321896  0.93046498  0.44377960     0.13300
H204        H  0.29138847  0.92544497  0.50370745     0.12900
H205        H  0.34171709  0.04040575  0.51044352     0.12300
H206        H  0.34389540  0.04566924  0.45094356     0.12600
H207        H  0.33716449  0.00645202  0.55997239     0.15300
H208        H  0.27466109  0.92778718  0.55719903     0.14100
H209        H  0.31150679  0.96451370  0.39327128     0.11800
H210        H  0.34143691  0.04553729  0.39752567     0.13800
C211        C  0.46686772  0.98099226  0.69224115     0.19900
C212        C  0.47527095  0.95402009  0.69432972    -0.18200
C213        C  0.51114925  0.96286692  0.69781285    -0.10500
C214        C  0.53950792  0.99903336  0.69892798     0.22100
C215        C  0.53119934  0.02600545  0.69639247    -0.19800
C216        C  0.49531800  0.01717471  0.69319004    -0.10700
C217        C  0.57811770  0.00946842  0.69942247    -0.14800
C218        C  0.58933565  0.98863130  0.71258636    -0.28700
C219        C  0.42849482  0.97048844  0.68743872    -0.03000
C220        C  0.41568427  0.99172331  0.69553454    -0.39500
H221        H  0.45401876  0.92600195  0.69304539     0.13300
H222        H  0.51662956  0.94134513  0.69844815     0.12900
H223        H  0.55261680  0.05403576  0.69646208     0.12300
H224        H  0.49026246  0.03884085  0.69043313     0.12600
H225        H  0.59787949  0.03486352  0.68774774     0.15300
H226        H  0.57034045  0.96407903  0.72582056     0.14100
H227        H  0.41007650  0.94418695  0.67728674     0.11800
H228        H  0.43317573  0.01739471  0.70704161     0.13800
C229        C  0.66756989  0.80552735  0.12594535     0.19900
C230        C  0.67073206  0.80002614  0.15954022    -0.18200
C231        C  0.67171049  0.82358651  0.18320187    -0.10500
C232        C  0.66912582  0.85327445  0.17387043     0.22100
C233        C  0.66611629  0.85894634  0.14026171    -0.19800
C234        C  0.66519311  0.83534378  0.11651583    -0.10700
C235        C  0.67043360  0.87938057  0.19814413    -0.14800
C236        C  0.66495221  0.87284126  0.23080454    -0.28700
C237        C  0.66647613  0.77907247  0.10219343    -0.03000
C238        C  0.66777882  0.78243547  0.06909682    -0.39500
H239        H  0.67276609  0.77742644  0.16759755     0.13300
H240        H  0.67512673  0.81856402  0.20857861     0.12900
H241        H  0.66423411  0.88166814  0.13232219     0.12300
H242        H  0.66232226  0.84057243  0.09105705     0.12600
H243        H  0.67544888  0.90493121  0.18855477     0.15300
H244        H  0.65846853  0.84718728  0.24119309     0.14100
H245        H  0.66480502  0.75529995  0.11280318     0.11800
H246        H  0.66980194  0.80570726  0.05717119     0.13800
C247        C  0.45446705  0.46909126  0.05368772     0.19900
C248        C  0.45285342  0.49816241  0.04088485    -0.18200
C249        C  0.48390223  0.53259263  0.03905021    -0.10500
C250        C  0.51739080  0.53878818  0.05031351     0.22100
C251        C  0.51840038  0.50999848  0.06485492    -0.19800
C252        C  0.48737202  0.47555395  0.06653661    -0.10700
C253        C  0.55212938  0.57404333  0.04644905    -0.14800
C254        C  0.55607251  0.60252758  0.02941953    -0.28700
C255        C  0.42162695  0.43240926  0.05232885    -0.03000
C256        C  0.42323402  0.40256207  0.04907050    -0.39500
H257        H  0.42769681  0.49400324  0.03127719     0.13300
H258        H  0.48125593  0.55382003  0.02837302     0.12900
H259        H  0.54354385  0.51395641  0.07429213     0.12300
H260        H  0.48934415  0.45405752  0.07768165     0.12600
H261        H  0.57618074  0.57599871  0.05676284     0.15300
H262        H  0.53310322  0.60188995  0.01833459     0.14100
H263        H  0.39549987  0.43023769  0.05059674     0.11800
H264        H  0.44925154  0.40444698  0.04841800     0.13800
C265        C  0.33387593  0.17747315  0.12652073     0.19900
C266        C  0.34525846  0.15326544  0.11992453    -0.18200
C267        C  0.34513144  0.13070484  0.14472063    -0.10500
C268        C  0.33350606  0.13171059  0.17700916     0.22100
C269        C  0.32233203  0.15604600  0.18368496    -0.19800
C270        C  0.32250494  0.17864296  0.15890333    -0.10700
C271        C  0.33405919  0.10917046  0.20464493    -0.14800
C272        C  0.33648269  0.07989574  0.20036421    -0.28700
C273        C  0.33580600  0.20187061  0.09934537    -0.03000
C274        C  0.31944158  0.22101719  0.10062271    -0.39500
H275        H  0.35462571  0.15198280  0.09544366     0.13300
H276        H  0.35502751  0.11327842  0.13843502     0.12900
H277        H  0.31366860  0.15782400  0.20833796     0.12300
H278        H  0.31447469  0.19742423  0.16567288     0.12600
H279        H  0.33176596  0.11668999  0.22959698     0.15300
H280        H  0.33712579  0.07067372  0.17582008     0.14100
H281        H  0.35120154  0.20398214  0.07726172     0.11800
H282        H  0.30295818  0.21865305  0.12183469     0.13800
C283        C  0.70040078  0.80097648  0.63473800     0.19900
C284        C  0.67261061  0.80230825  0.65151122    -0.18200
C285        C  0.67798362  0.83486751  0.66286340    -0.10500
C286        C  0.71144021  0.86697828  0.65765298     0.22100
C287        C  0.73898634  0.86578779  0.64030712    -0.19800
C288        C  0.73364333  0.83320899  0.62897854    -0.10700
C289        C  0.71759123  0.90249855  0.66726545    -0.14800
C290        C  0.69796527  0.90704273  0.69045717    -0.27500
C291        C  0.69348066  0.76532894  0.62441179    -0.03000
C292        C  0.71969882  0.75867826  0.61657788    -0.39500
H293        H  0.64661716  0.77799351  0.65598768     0.13300
H294        H  0.65552547  0.83472569  0.67495070     0.12900
H295        H  0.76471608  0.89023756  0.63533453     0.12300
H296        H  0.75551162  0.83372596  0.61540424     0.12600
H297        H  0.73841318  0.92586270  0.65366298     0.15300
H298        H  0.67763184  0.88443479  0.70506528     0.14100
H299        H  0.66570085  0.74279753  0.62633214     0.11800
H300        H  0.74795845  0.77999110  0.61612064     0.13800
C301        C  0.67225505  0.66319424  0.84964750     0.19900
C302        C  0.69381843  0.65093960  0.83603459    -0.18200
C303        C  0.69444578  0.64609482  0.80199709    -0.10500
C304        C  0.67307453  0.65301371  0.78092353     0.22100
C305        C  0.65068011  0.66412944  0.79477954    -0.19800
C306        C  0.65036781  0.66933280  0.82866327    -0.10700
C307        C  0.67261899  0.64867977  0.74454389    -0.14800
C308        C  0.69899480  0.64854289  0.72668916    -0.28700
C309        C  0.67171113  0.66751015  0.88589837    -0.03000
C310        C  0.66434358  0.69083301  0.90028962    -0.39500
H311        H  0.71038409  0.64531869  0.85177329     0.13300
H312        H  0.71126776  0.63647491  0.79249667     0.12900
H313        H  0.63349395  0.66908731  0.77925771     0.12300
H314        H  0.63240875  0.67750951  0.83837627     0.12600
H315        H  0.65020314  0.64754151  0.73156547     0.15300
H316        H  0.72248616  0.65093958  0.73853567     0.14100
H317        H  0.67855092  0.65148224  0.90128697     0.11800
H318        H  0.65993672  0.70890817  0.88540051     0.13800
C319        C  0.30774941  0.18089303  0.63062618     0.19900
C320        C  0.27679718  0.14952210  0.64307871    -0.18200
C321        C  0.27836797  0.11919508  0.65150251    -0.10500
C322        C  0.31085835  0.11944138  0.64758102     0.22100
C323        C  0.34142508  0.15048805  0.63466744    -0.19800
C324        C  0.33987319  0.18072469  0.62625373    -0.10700
C325        C  0.31470062  0.08861068  0.65715323    -0.14800
C326        C  0.28689243  0.05505085  0.66368030    -0.28700
C327        C  0.30891985  0.21514207  0.62396401    -0.03000
C328        C  0.28058750  0.21965747  0.62759462    -0.39500
H329        H  0.25144166  0.14817732  0.64721170     0.13300
H330        H  0.25426434  0.09614192  0.66182274     0.12900
H331        H  0.36682337  0.15151454  0.63131141     0.12300
H332        H  0.36418918  0.20438761  0.61683553     0.12600
H333        H  0.34205605  0.09352702  0.65740949     0.15300
H334        H  0.25907027  0.04837862  0.66216862     0.14100
H335        H  0.33519205  0.23852917  0.61757334     0.11800
H336        H  0.25384839  0.19734857  0.63402357     0.13800
C337        C  0.32071780  0.32003911  0.79299481     0.19900
C338        C  0.33480939  0.30079863  0.80787309    -0.18200
C339        C  0.33684449  0.29926765  0.84221041    -0.10500
C340        C  0.32507829  0.31733538  0.86251064     0.22100
C341        C  0.31165627  0.33715119  0.84753254    -0.19800
C342        C  0.30939985  0.33847438  0.81324915    -0.10700
C343        C  0.32734088  0.31749915  0.89916839    -0.14800
C344        C  0.33188710  0.29423874  0.91755140    -0.28700
C345        C  0.31961490  0.32132959  0.75637775    -0.03000
C346        C  0.29693657  0.32793951  0.73949188    -0.39500
H347        H  0.34423343  0.28679026  0.79283804     0.13300
H348        H  0.34823699  0.28447004  0.85253585     0.12900
H349        H  0.30288216  0.35178867  0.86245768     0.12300
H350        H  0.29948393  0.35454581  0.80279315     0.12600
H351        H  0.32388616  0.33740028  0.91183511     0.15300
H352        H  0.33383815  0.27292972  0.90612522     0.14100
H353        H  0.33736635  0.31513651  0.74271215     0.11800
H354        H  0.27741055  0.33214052  0.75238605     0.13800
C355        C  0.52873709  0.52188246  0.57812055     0.19900
C356        C  0.49819749  0.52521797  0.57992698    -0.18200
C357        C  0.46326250  0.49466690  0.58160538    -0.10500
C358        C  0.45824008  0.46008757  0.58120204     0.22100
C359        C  0.48860920  0.45684696  0.57690677    -0.19800
C360        C  0.52349342  0.48733220  0.57545269    -0.10700
C361        C  0.42208477  0.42687451  0.58606772    -0.14800
C362        C  0.39529003  0.42588434  0.60404813    -0.28700
C363        C  0.56550832  0.55469115  0.58042553    -0.03000
C364        C  0.59364340  0.55397118  0.59343062    -0.39500
H365        H  0.50142021  0.55152593  0.58125911     0.13300
H366        H  0.44038000  0.49823292  0.58354952     0.12900
H367        H  0.48543796  0.43054832  0.57578427     0.12300
H368        H  0.54623174  0.48366433  0.57259294     0.12600
H369        H  0.41854632  0.40183317  0.57710770     0.15300
H370        H  0.39898127  0.45026437  0.61477720     0.14100
H371        H  0.56865239  0.58045652  0.57425634     0.11800
H372        H  0.59026013  0.52872325  0.60179300     0.13800
C373        C  0.11405047  0.79986373  0.30631354     0.19900
C374        C  0.11877944  0.82784929  0.28558694    -0.18200
C375        C  0.15348312  0.85557742  0.27631768    -0.10500
C376        C  0.18424287  0.85580073  0.28764395     0.22100
C377        C  0.17947328  0.82694129  0.30708674    -0.19800
C378        C  0.14475821  0.79923097  0.31640172    -0.10700
C379        C  0.22157230  0.88613358  0.28059720    -0.14800
C380        C  0.22913020  0.91982907  0.27564723    -0.28700
C381        C  0.07670782  0.77057010  0.31490139    -0.03000
C382        C  0.06856527  0.74830589  0.34090841    -0.39500
H383        H  0.09553261  0.82836884  0.27668224     0.13300
H384        H  0.15601334  0.87661376  0.26019238     0.12900
H385        H  0.20270605  0.82616627  0.31561653     0.12300
H386        H  0.14222707  0.77723731  0.33105554     0.12600
H387        H  0.24374618  0.88137717  0.28303593     0.15300
H388        H  0.20756665  0.92557107  0.27564652     0.14100
H389        H  0.05526039  0.76635374  0.29835330     0.11800
H390        H  0.08925627  0.75214371  0.35812619     0.13800
C391        C  0.80786847  0.65075359  0.50145575     0.19900
C392        C  0.80861517  0.65894889  0.46781476    -0.18200
C393        C  0.83418712  0.65920790  0.44622901    -0.10500
C394        C  0.85971221  0.65110330  0.45778583     0.22100
C395        C  0.85923834  0.64321178  0.49139200    -0.19800
C396        C  0.83363988  0.64285865  0.51297439    -0.10700
C397        C  0.88793231  0.65170126  0.43598422    -0.14800
C398        C  0.88493096  0.64768624  0.40309186    -0.28700
C399        C  0.78026204  0.65151392  0.52335089    -0.03000
C400        C  0.77595620  0.64346627  0.55583155    -0.39500
H401        H  0.78945524  0.66547877  0.45816011     0.13300
H402        H  0.83422903  0.66649014  0.42073250     0.12900
H403        H  0.87875117  0.63715175  0.50103409     0.12300
H404        H  0.83468295  0.63662973  0.53852725     0.12600
H405        H  0.91164059  0.65427562  0.44771415     0.15300
H406        H  0.86077398  0.64320563  0.39086316     0.14100
H407        H  0.76260876  0.65928296  0.51210288     0.11800
H408        H  0.79261053  0.63529259  0.56815886     0.13800
C409        C  0.82290339  0.10697725  0.30591547     0.19900
C410        C  0.82555065  0.13573401  0.32357748    -0.18200
C411        C  0.85933596  0.16517380  0.33163310    -0.10500
C412        C  0.89139739  0.16655777  0.32203549     0.22100
C413        C  0.88872812  0.13806586  0.30379166    -0.19800
C414        C  0.85488284  0.10854891  0.29579981    -0.10700
C415        C  0.92797355  0.19833118  0.32814388    -0.14800
C416        C  0.93460441  0.22409484  0.34995182    -0.28700
C417        C  0.78629548  0.07594096  0.29881096    -0.03000
C418        C  0.77938661  0.04246733  0.29421836    -0.39500
H419        H  0.80133948  0.13535286  0.33134074     0.13300
H420        H  0.85992467  0.18698410  0.34463253     0.12900
H421        H  0.91293936  0.13876634  0.29546819     0.12300
H422        H  0.85399317  0.08742191  0.28128583     0.12600
H423        H  0.95025001  0.20131596  0.31300275     0.15300
H424        H  0.91335602  0.22168101  0.36609821     0.14100
H425        H  0.76367006  0.08012852  0.30060866     0.11800
H426        H  0.80112356  0.03698811  0.29461646     0.13800
C427        C  0.00415973  0.52139280  0.38419540     0.19900
C428        C  0.03840239  0.52529034  0.38225736    -0.18200
C429        C  0.04164125  0.49504363  0.38242747    -0.10500
C430        C  0.01053402  0.46031518  0.38468405     0.22100
C431        C  0.97657880  0.45670387  0.38894646    -0.19800
C432        C  0.97336353  0.48689909  0.38871498    -0.10700
C433        C  0.01202360  0.42720840  0.38190796    -0.14800
C434        C  0.03966018  0.42648268  0.36737670    -0.28700
C435        C  0.00115841  0.55350126  0.38025138    -0.03000
C436        C  0.97264230  0.55179739  0.36545742    -0.39500
H437        H  0.06256622  0.55168038  0.37948356     0.13300
H438        H  0.06848056  0.49913484  0.38055219     0.12900
H439        H  0.95229586  0.43035913  0.39148550     0.12300
H440        H  0.94670020  0.48311132  0.39166726     0.12600
H441        H  0.98825438  0.40201325  0.38994055     0.15300
H442        H  0.06309009  0.45086914  0.35774841     0.14100
H443        H  0.02413417  0.57944610  0.38702328     0.11800
H444        H  0.95073846  0.52639419  0.35643884     0.13800
C445        C  0.13858984  0.32339584  0.46692340     0.19900
C446        C  0.13200431  0.32275906  0.50096392    -0.18200
C447        C  0.15539129  0.32158541  0.52387686    -0.10500
C448        C  0.18625088  0.32119761  0.51326562     0.22100
C449        C  0.19278643  0.32171625  0.47927731    -0.19800
C450        C  0.16943911  0.32289690  0.45637560    -0.10700
C451        C  0.21198782  0.31952626  0.53639055    -0.14800
C452        C  0.21389849  0.32657374  0.56883787    -0.28700
C453        C  0.11217404  0.32388863  0.44372747    -0.03000
C454        C  0.11543974  0.32537987  0.41058415    -0.39500
H455        H  0.10842339  0.32288459  0.50994758     0.13300
H456        H  0.14867320  0.32038517  0.54972250     0.12900
H457        H  0.21619025  0.32125362  0.47031826     0.12300
H458        H  0.17586712  0.32313134  0.43061750     0.12600
H459        H  0.23120244  0.31325994  0.52585495     0.15300
H460        H  0.19607333  0.33408180  0.58017374     0.14100
H461        H  0.08864692  0.32294025  0.45461351     0.11800
H462        H  0.13855888  0.32687214  0.39847256     0.13800
C463        C  0.01303909  0.33216879  0.18451530     0.19900
C464        C  0.98076701  0.32535296  0.16986465    -0.18200
C465        C  0.97649941  0.32193699  0.13572567    -0.10500
C466        C  0.00453787  0.32525241  0.11530735     0.22100
C467        C  0.03706847  0.33277086  0.12984414    -0.19800
C468        C  0.04135370  0.33619592  0.16397483    -0.10700
C469        C  0.00167926  0.32229677  0.07881081    -0.14800
C470        C  0.97028070  0.30699126  0.06225370    -0.28700
C471        C  0.01544510  0.33441867  0.22113642    -0.03000
C472        C  0.04224256  0.33554563  0.23884615    -0.39500
H473        H  0.95860710  0.32248569  0.18492801     0.13300
H474        H  0.95138407  0.31721657  0.12559366     0.12900
H475        H  0.05929846  0.33590141  0.11471125     0.12300
H476        H  0.06699931  0.34216388  0.17379506     0.12600
H477        H  0.02679239  0.33223150  0.06490292     0.15300
H478        H  0.94447978  0.29503053  0.07523341     0.14100
H479        H  0.99296943  0.33343146  0.23433817     0.11800
H480        H  0.06482715  0.33572895  0.22696410     0.13800
C481        C  0.16233535  0.26233899  0.99677198     0.19900
C482        C  0.14847013  0.25813114  0.96494396    -0.18200
C483        C  0.11594078  0.25685591  0.95969791    -0.10500
C484        C  0.09640092  0.25925508  0.98636357     0.22100
C485        C  0.10949034  0.26189951  0.01835371    -0.19800
C486        C  0.14232560  0.26374547  0.02354547    -0.10700
C487        C  0.06261445  0.25956270  0.98167180    -0.14800
C488        C  0.05706326  0.27440390  0.95497717    -0.28700
C489        C  0.19734548  0.26446602  0.00120500    -0.03000
C490        C  0.22103870  0.28434047  0.02461541    -0.39500
H491        H  0.16318183  0.25644049  0.94400997     0.13300
H492        H  0.10605951  0.25376392  0.93483185     0.12900
H493        H  0.09464972  0.26332064  0.03931789     0.12300
H494        H  0.15180062  0.26591936  0.04847770     0.12600
H495        H  0.04345451  0.25068133  0.00221873     0.15300
H496        H  0.07738335  0.28621524  0.93543554     0.14100
H497        H  0.20502925  0.25133782  0.98306058     0.11800
H498        H  0.21515671  0.30004070  0.04130059     0.13800
C499        C  0.80683926  0.12423352  0.80280282     0.19900
C500        C  0.80500318  0.11938627  0.83716961    -0.18200
C501        C  0.83006044  0.14660326  0.85763165    -0.10500
C502        C  0.85751524  0.17966524  0.84419929     0.22100
C503        C  0.85927396  0.18460114  0.80985364    -0.19800
C504        C  0.83418168  0.15740075  0.78938916    -0.10700
C505        C  0.88573864  0.20903867  0.86475387    -0.14800
C506        C  0.88234779  0.21217374  0.89743508    -0.28700
C507        C  0.77910756  0.09437056  0.78226337    -0.03000
C508        C  0.78211396  0.09181393  0.74943188    -0.39500
H509        H  0.78427417  0.09421777  0.84826157     0.13300
H510        H  0.82814050  0.14119818  0.88381918     0.12900
H511        H  0.88008701  0.20974011  0.79878292     0.12300
H512        H  0.83620711  0.16284307  0.76320739     0.12600
H513        H  0.91037233  0.22933979  0.85220188     0.15300
H514        H  0.85757334  0.19327307  0.91053031     0.14100
H515        H  0.75519941  0.07311699  0.79496811     0.11800
H516        H  0.80602860  0.11186531  0.73599955     0.13800
C517        C  0.87792842  0.70202365  0.97470060     0.19900
C518        C  0.84574904  0.67437237  0.98929165    -0.18200
C519        C  0.81764699  0.67983697  0.99778230    -0.10500
C520        C  0.82110327  0.71329826  0.99180704     0.22100
C521        C  0.85326022  0.74097496  0.97716541    -0.19800
C522        C  0.88146616  0.73553070  0.96874752    -0.10700
C523        C  0.79057357  0.71914915  0.99740356    -0.14800
C524        C  0.76205540  0.69845783  0.01748056    -0.28700
C525        C  0.90633228  0.69414405  0.96524030    -0.03000
C526        C  0.94136398  0.71932625  0.95950218    -0.39500
H527        H  0.84213480  0.64818489  0.99384401     0.13300
H528        H  0.79292178  0.65734396  0.00788232     0.12900
H529        H  0.85634602  0.76678150  0.97171774     0.12300
H530        H  0.90538115  0.75729356  0.95680226     0.12600
H531        H  0.79082995  0.74042091  0.98308867     0.15300
H532        H  0.76143269  0.67772078  0.03283118     0.14100
H533        H  0.89831067  0.66604054  0.96471102     0.11800
H534        H  0.95093600  0.74763194  0.96171580     0.13800
C535        C  0.00219830  0.66178654  0.18041710     0.19900
C536        C  0.03390064  0.68944615  0.16501999    -0.18200
C537        C  0.03734485  0.69198282  0.13060977    -0.10500
C538        C  0.00917773  0.66647462  0.11092481     0.22100
C539        C  0.97795686  0.63830435  0.12648544    -0.19800
C540        C  0.97446989  0.63590462  0.16076019    -0.10700
C541        C  0.00981546  0.66843504  0.07429478    -0.14800
C542        C  0.03839529  0.69118695  0.05492220    -0.28700
C543        C  0.99947892  0.66015936  0.21695321    -0.03000
C544        C  0.96784396  0.64451865  0.23400660    -0.39500
H545        H  0.05581737  0.70952353  0.17967261     0.13300
H546        H  0.06175975  0.71422857  0.11977707     0.12900
H547        H  0.95594003  0.61807348  0.11202117     0.12300
H548        H  0.95017817  0.61351800  0.17169490     0.12600
H549        H  0.98452968  0.64964456  0.06242898     0.15300
H550        H  0.06457218  0.70991411  0.06522239     0.14100
H551        H  0.02471446  0.67369279  0.23036738     0.11800
H552        H  0.94225806  0.63286393  0.22132619     0.13800
C553        C  0.98389311  0.45449195  0.92837982     0.19900
C554        C  0.95671556  0.46290107  0.92750625    -0.18200
C555        C  0.96555213  0.49866119  0.92749439    -0.10500
C556        C  0.00200047  0.52698373  0.92848981     0.22100
C557        C  0.02918868  0.51852789  0.92871755    -0.19800
C558        C  0.02033926  0.48277774  0.92866611    -0.10700
C559        C  0.01289130  0.56535011  0.93189981    -0.14800
C560        C  0.99063562  0.57785747  0.92702844    -0.28700
C561        C  0.97309673  0.41619444  0.93224527    -0.03000
C562        C  0.99514170  0.40386446  0.92530689    -0.39500
H563        H  0.92844320  0.44167251  0.92765665     0.13300
H564        H  0.94356295  0.50360730  0.92801125     0.12900
H565        H  0.05743010  0.53966812  0.92981678     0.12300
H566        H  0.04214906  0.47760573  0.93031231     0.12600
H567        H  0.04053249  0.58414915  0.93930642     0.15300
H568        H  0.96332015  0.56035834  0.91842867     0.14100
H569        H  0.94608483  0.39753787  0.94203498     0.11800
H570        H  0.02159315  0.42142408  0.91407496     0.13800
C571        C  0.19511900  0.84025709  0.78489405     0.19900
C572        C  0.16347128  0.80695758  0.77930694    -0.18200
C573        C  0.14134002  0.78553283  0.80560604    -0.10500
C574        C  0.15043434  0.79688691  0.83836685     0.22100
C575        C  0.18278911  0.82953541  0.84400134    -0.19800
C576        C  0.20485001  0.85100728  0.81770516    -0.10700
C577        C  0.12743048  0.77537660  0.86725954    -0.14800
C578        C  0.09187101  0.75039307  0.86528263    -0.28700
C579        C  0.21742712  0.86253301  0.75598523    -0.03000
C580        C  0.24094566  0.89827342  0.75723228    -0.39500
H581        H  0.15560972  0.79758354  0.75439754     0.13300
H582        H  0.11744893  0.75999239  0.80004056     0.12900
H583        H  0.19091121  0.83868214  0.86892415     0.12300
H584        H  0.22965000  0.87572811  0.82334697     0.12600
H585        H  0.13990484  0.78144849  0.89131787     0.15300
H586        H  0.07835807  0.74496409  0.84182592     0.14100
H587        H  0.21324170  0.84924851  0.73248827     0.11800
H588        H  0.24436512  0.91241612  0.78002959     0.13800
loop_ 
_geom_bond_atom_site_label_1 
_geom_bond_atom_site_label_2 
_geom_bond_distance 
_geom_bond_site_symmetry_2 
_ccdc_geom_bond_type 
O1            C4   1.266       .  A
O1           Cd6   2.452   1_655  S
C2           O11   1.266       .  A
C2            O7   1.265   1_455  A
C2          C560   1.478   1_455  S
O3            C9   1.269       .  A
O3           Cd6   2.509       .  S
C4           O12   1.266   1_655  A
C4          C526   1.476       .  S
C5           O10   1.262       .  A
C5            O8   1.269   1_554  A
C5          C542   1.482       .  S
Cd6          O13   2.458       .  S
Cd6          O12   2.474       .  S
Cd6          O11   2.477       .  S
Cd6           O7   2.467   1_455  S
Cd6          O10   2.419   1_556  S
Cd6           O8   2.525       .  S
C9           O13   1.264       .  A
C9          C578   1.482       .  S
O14          C17   1.263   1_455  A
O14         Cd19   2.469   1_455  S
C15          O24   1.265   1_455  A
C15          O20   1.265       .  A
C15         C488   1.473       .  S
O16          C22   1.268       .  A
O16         Cd19   2.493   1_554  S
C17          O25   1.266       .  A
C17         C562   1.476       .  S
C18          O23   1.265       .  A
C18          O21   1.264       .  A
C18         C506   1.483       .  S
Cd19         O26   2.449   1_556  S
Cd19         O25   2.480       .  S
Cd19         O24   2.459       .  S
Cd19         O20   2.465   1_655  S
Cd19         O23   2.497       .  S
Cd19         O21   2.484       .  S
C22          O26   1.264       .  A
C22         C470   1.479       .  S
O27          C30   1.265       .  A
O27         Cd32   2.466   1_655  S
C28          O37   1.263       .  A
C28          O33   1.266       .  A
C28         C434   1.470       .  S
O29          C35   1.265       .  A
O29         Cd32   2.482       .  S
C30          O38   1.265       .  A
C30         C416   1.473       .  S
C31          O36   1.267       .  A
C31          O34   1.265       .  A
C31         C472   1.478       .  S
Cd32         O39   2.482       .  S
Cd32         O38   2.458   1_455  S
Cd32         O37   2.450       .  S
Cd32         O33   2.460       .  S
Cd32         O36   2.480       .  S
Cd32         O34   2.456       .  S
C35          O39   1.264       .  A
C35         C454   1.480       .  S
O40          C43   1.263       .  A
O40         Cd45   2.466       .  S
C41          O50   1.266       .  A
C41          O46   1.265       .  A
C41         C382   1.468       .  S
O42          C48   1.263       .  A
O42         Cd45   2.443       .  S
C43          O51   1.263       .  A
C43         C436   1.469       .  S
C44          O49   1.264       .  A
C44          O47   1.264       .  A
C44         C398   1.479       .  S
Cd45         O52   2.495       .  S
Cd45         O51   2.456       .  S
Cd45         O50   2.444   1_655  S
Cd45         O46   2.448   1_655  S
Cd45         O49   2.483       .  S
Cd45         O47   2.482       .  S
C48          O52   1.268       .  A
C48         C544   1.477       .  S
O53          C56   1.266       .  A
O53         Cd58   2.484       .  S
C54          O63   1.264       .  A
C54          O59   1.267       .  A
C54         C328   1.475       .  S
O55          C61   1.267       .  A
O55         Cd58   2.494       .  S
C56          O64   1.264       .  A
C56         C362   1.477       .  S
C57          O62   1.266       .  A
C57          O60   1.265       .  A
C57         C452   1.481       .  S
Cd58         O65   2.460       .  S
Cd58         O64   2.466       .  S
Cd58         O63   2.460       .  S
Cd58         O59   2.468       .  S
Cd58         O62   2.487       .  S
Cd58         O60   2.476       .  S
C61          O65   1.264       .  A
C61         C346   1.480       .  S
O66          C69   1.266       .  A
O66         Cd71   2.460       .  S
C67          O76   1.264       .  A
C67          O72   1.267       .  A
C67         C364   1.476       .  S
O68          C74   1.266       .  A
O68         Cd71   2.466       .  S
C69          O77   1.263       .  A
C69         C292   1.472       .  S
C70          O75   1.263       .  A
C70          O73   1.266       .  A
C70         C308   1.482       .  S
Cd71         O78   2.485       .  S
Cd71         O77   2.459       .  S
Cd71         O76   2.452       .  S
Cd71         O72   2.494       .  S
Cd71         O75   2.461       .  S
Cd71         O73   2.504       .  S
C74          O78   1.267       .  A
C74         C400   1.480       .  S
O79          C82   1.265       .  A
O79         Cd84   2.483       .  S
C80          O89   1.266       .  A
C80          O85   1.267       .  A
C80         C490   1.473       .  S
O81          C87   1.269       .  A
O81         Cd84   2.516   1_556  S
C82          O90   1.265       .  A
C82         C256   1.478       .  S
C83          O88   1.268       .  A
C83          O86   1.263       .  A
C83         C274   1.484       .  S
Cd84         O91   2.454   1_554  S
Cd84         O90   2.478       .  S
Cd84         O89   2.445       .  S
Cd84         O85   2.468       .  S
Cd84         O88   2.530       .  S
Cd84         O86   2.464       .  S
C87          O91   1.263       .  A
C87         C344   1.484       .  S
O92          C95   1.266       .  A
O92         Cd97   2.470       .  S
C93         O102   1.265       .  A
C93          O98   1.266       .  A
C93         C524   1.473       .  S
O94         C100   1.269       .  A
O94         Cd97   2.495   1_556  S
C95         O103   1.265       .  A
C95         C254   1.478       .  S
C96         O101   1.267       .  A
C96          O99   1.264       .  A
C96         C238   1.481       .  S
Cd97        O104   2.447   1_554  S
Cd97        O103   2.470       .  S
Cd97        O102   2.451       .  S
Cd97         O98   2.464       .  S
Cd97        O101   2.503       .  S
Cd97         O99   2.456       .  S
C100        O104   1.264       .  A
C100        C310   1.478       .  S
O105        C108   1.264   1_545  A
O105       Cd110   2.453   1_545  S
C106        O115   1.265   1_545  A
C106        O111   1.265       .  A
C106        C326   1.476       .  S
O107        C113   1.269       .  A
O107       Cd110   2.520       .  S
C108        O116   1.268       .  A
C108        C220   1.476       .  S
C109        O114   1.269       .  A
C109        O112   1.264       .  A
C109        C580   1.483       .  S
Cd110       O117   2.427       .  S
Cd110       O116   2.489       .  S
Cd110       O115   2.476       .  S
Cd110       O111   2.454   1_565  S
Cd110       O114   2.517       .  S
Cd110       O112   2.460       .  S
C113        O117   1.262       .  A
C113        C200   1.481       .  S
O118        C121   1.263       .  A
O118       Cd123   2.462   1_565  S
C119        O128   1.266       .  A
C119        O124   1.264       .  A
C119        C290   1.474       .  S
O120        C126   1.267       .  A
O120       Cd123   2.496       .  S
C121        O129   1.266   1_565  A
C121        C218   1.475       .  S
C122        O127   1.264       .  A
C122        O125   1.265       .  A
C122        C508   1.483       .  S
Cd123       O130   2.436   1_545  S
Cd123       O129   2.470       .  S
Cd123       O128   2.457   1_545  S
Cd123       O124   2.468   1_545  S
Cd123       O127   2.494       .  S
Cd123       O125   2.494       .  S
C126        O130   1.263   1_545  A
C126        C182   1.476       .  S
O131        C134   1.268   1_565  A
O131       Cd136   2.477   1_565  S
C132        O141   1.264       .  A
C132        O137   1.269       .  A
C132        C380   1.468       .  S
O133        C139   1.269       .  A
O133       Cd136   2.496       .  S
C134        O142   1.264       .  A
C134        C164   1.473       .  S
C135        O140   1.269       .  A
C135        O138   1.265       .  A
C135        C272   1.480       .  S
Cd136       O143   2.429   1_545  S
Cd136       O142   2.444       .  S
Cd136       O141   2.426   1_545  S
Cd136       O137   2.469   1_545  S
Cd136       O140   2.496       .  S
Cd136       O138   2.451       .  S
C139        O143   1.263   1_545  A
C139        C202   1.478       .  S
O144        C147   1.266       .  A
O144       Cd149   2.466       .  S
C145        O154   1.264   1_545  A
C145        O150   1.267       .  A
C145        C418   1.472       .  S
O146        C152   1.266       .  A
O146       Cd149   2.490       .  S
C147        O155   1.263       .  A
C147        C166   1.472       .  S
C148        O153   1.266       .  A
C148        O151   1.267       .  A
C148        C236   1.476       .  S
Cd149       O156   2.437       .  S
Cd149       O155   2.458       .  S
Cd149       O154   2.456       .  S
Cd149       O150   2.459   1_565  S
Cd149       O153   2.463       .  S
Cd149       O151   2.462       .  S
C152        O156   1.263       .  A
C152        C184   1.475       .  S
C157        C165   1.483       .  S
C157        C158   1.401   1_565  A
C157        C162   1.406       .  A
C158        C159   1.397       .  A
C158        H167   1.083       .  S
C159        C160   1.410   1_545  A
C159        H168   1.079       .  S
C160        C163   1.491       .  S
C160        C161   1.405       .  A
C161        C162   1.398       .  A
C161        H169   1.083       .  S
C162        H170   1.082       .  S
C163        H171   1.087       .  S
C163        C164   1.345   1_565  D
C164        H172   1.082       .  S
C165        H173   1.087   1_565  S
C165        C166   1.344       .  D
C166        H174   1.085       .  S
C175        C183   1.489       .  S
C175        C176   1.406   1_565  A
C175        C180   1.408       .  A
C176        C177   1.397       .  A
C176        H185   1.084       .  S
C177        C178   1.404   1_545  A
C177        H186   1.082       .  S
C178        C181   1.482       .  S
C178        C179   1.403       .  A
C179        C180   1.398       .  A
C179        H187   1.084       .  S
C180        H188   1.079       .  S
C181        H189   1.087       .  S
C181        C182   1.347   1_565  D
C182        H190   1.085       .  S
C183        H191   1.087       .  S
C183        C184   1.348       .  D
C184        H192   1.082       .  S
C193        C201   1.491       .  S
C193        C194   1.408       .  A
C193        C198   1.407   1_565  A
C194        C195   1.400       .  A
C194        H203   1.083       .  S
C195        C196   1.404       .  A
C195        H204   1.082       .  S
C196        C199   1.486       .  S
C196        C197   1.404   1_565  A
C197        C198   1.398       .  A
C197        H205   1.084       .  S
C198        H206   1.079       .  S
C199        H207   1.087   1_565  S
C199        C200   1.350       .  D
C200        H208   1.085       .  S
C201        H209   1.087       .  S
C201        C202   1.351   1_565  D
C202        H210   1.082       .  S
C211        C219   1.489       .  S
C211        C212   1.404       .  A
C211        C216   1.409   1_565  A
C212        C213   1.400       .  A
C212        H221   1.083       .  S
C213        C214   1.407       .  A
C213        H222   1.082       .  S
C214        C217   1.485   1_565  S
C214        C215   1.402   1_565  A
C215        C216   1.399       .  A
C215        H223   1.083       .  S
C216        H224   1.081       .  S
C217        H225   1.087       .  S
C217        C218   1.344   1_545  D
C218        H226   1.085       .  S
C219        H227   1.087       .  S
C219        C220   1.345       .  D
C220        H228   1.084   1_565  S
C229        C237   1.492       .  S
C229        C230   1.404       .  A
C229        C234   1.408       .  A
C230        C231   1.397       .  A
C230        H239   1.084       .  S
C231        C232   1.407       .  A
C231        H240   1.080       .  S
C232        C235   1.491       .  S
C232        C233   1.405       .  A
C233        C234   1.402       .  A
C233        H241   1.084       .  S
C234        H242   1.080       .  S
C235        H243   1.087       .  S
C235        C236   1.348       .  D
C236        H244   1.084       .  S
C237        H245   1.087       .  S
C237        C238   1.349       .  D
C238        H246   1.083       .  S
C247        C255   1.488       .  S
C247        C248   1.403       .  A
C247        C252   1.406       .  A
C248        C249   1.400       .  A
C248        H257   1.083       .  S
C249        C250   1.410       .  A
C249        H258   1.080       .  S
C250        C253   1.494       .  S
C250        C251   1.406       .  A
C251        C252   1.400       .  A
C251        H259   1.083       .  S
C252        H260   1.082       .  S
C253        H261   1.087       .  S
C253        C254   1.348       .  D
C254        H262   1.082       .  S
C255        H263   1.087       .  S
C255        C256   1.347       .  D
C256        H264   1.085       .  S
C265        C273   1.500       .  S
C265        C266   1.405       .  A
C265        C270   1.411       .  A
C266        C267   1.402       .  A
C266        H275   1.083       .  S
C267        C268   1.410       .  A
C267        H276   1.080       .  S
C268        C271   1.496       .  S
C268        C269   1.404       .  A
C269        C270   1.402       .  A
C269        H277   1.084       .  S
C270        H278   1.080       .  S
C271        H279   1.087       .  S
C271        C272   1.347       .  D
C272        H280   1.083       .  S
C273        H281   1.087       .  S
C273        C274   1.349       .  D
C274        H282   1.083       .  S
C283        C291   1.487       .  S
C283        C284   1.404       .  A
C283        C288   1.408       .  A
C284        C285   1.397       .  A
C284        H293   1.083       .  S
C285        C286   1.407       .  A
C285        H294   1.082       .  S
C286        C289   1.485       .  S
C286        C287   1.403       .  A
C287        C288   1.398       .  A
C287        H295   1.083       .  S
C288        H296   1.081       .  S
C289        H297   1.087       .  S
C289        C290   1.346       .  D
C290        H298   1.085       .  S
C291        H299   1.087       .  S
C291        C292   1.345       .  D
C292        H300   1.083       .  S
C301        C309   1.488       .  S
C301        C302   1.406       .  A
C301        C306   1.404       .  A
C302        C303   1.402       .  A
C302        H311   1.083       .  S
C303        C304   1.408       .  A
C303        H312   1.082       .  S
C304        C307   1.490       .  S
C304        C305   1.405       .  A
C305        C306   1.398       .  A
C305        H313   1.083       .  S
C306        H314   1.083       .  S
C307        H315   1.087       .  S
C307        C308   1.349       .  D
C308        H316   1.084       .  S
C309        H317   1.087       .  S
C309        C310   1.350       .  D
C310        H318   1.085       .  S
C319        C327   1.492       .  S
C319        C320   1.411       .  A
C319        C324   1.403       .  A
C320        C321   1.400       .  A
C320        H329   1.079       .  S
C321        C322   1.408       .  A
C321        H330   1.081       .  S
C322        C325   1.489       .  S
C322        C323   1.403       .  A
C323        C324   1.396       .  A
C323        H331   1.083       .  S
C324        H332   1.083       .  S
C325        H333   1.087       .  S
C325        C326   1.347       .  D
C326        H334   1.083       .  S
C327        H335   1.087       .  S
C327        C328   1.346       .  D
C328        H336   1.082       .  S
C337        C345   1.490       .  S
C337        C338   1.406       .  A
C337        C342   1.406       .  A
C338        C339   1.402       .  A
C338        H347   1.083       .  S
C339        C340   1.407       .  A
C339        H348   1.081       .  S
C340        C343   1.493       .  S
C340        C341   1.407       .  A
C341        C342   1.400       .  A
C341        H349   1.083       .  S
C342        H350   1.081       .  S
C343        H351   1.087       .  S
C343        C344   1.352       .  D
C344        H352   1.084       .  S
C345        H353   1.087       .  S
C345        C346   1.350       .  D
C346        H354   1.085       .  S
C355        C363   1.490       .  S
C355        C356   1.404       .  A
C355        C360   1.408       .  A
C356        C357   1.401       .  A
C356        H365   1.084       .  S
C357        C358   1.408       .  A
C357        H366   1.082       .  S
C358        C361   1.488       .  S
C358        C359   1.402       .  A
C359        C360   1.398       .  A
C359        H367   1.084       .  S
C360        H368   1.081       .  S
C361        H369   1.087       .  S
C361        C362   1.346       .  D
C362        H370   1.085       .  S
C363        H371   1.087       .  S
C363        C364   1.347       .  D
C364        H372   1.085       .  S
C373        C381   1.482       .  S
C373        C374   1.402       .  A
C373        C378   1.408       .  A
C374        C375   1.396       .  A
C374        H383   1.083       .  S
C375        C376   1.407       .  A
C375        H384   1.081       .  S
C376        C379   1.483       .  S
C376        C377   1.402       .  A
C377        C378   1.397       .  A
C377        H385   1.083       .  S
C378        H386   1.081       .  S
C379        H387   1.087       .  S
C379        C380   1.343       .  D
C380        H388   1.085       .  S
C381        H389   1.087       .  S
C381        C382   1.344       .  D
C382        H390   1.084       .  S
C391        C399   1.497       .  S
C391        C392   1.406       .  A
C391        C396   1.410       .  A
C392        C393   1.401       .  A
C392        H401   1.083       .  S
C393        C394   1.407       .  A
C393        H402   1.081       .  S
C394        C397   1.491       .  S
C394        C395   1.403       .  A
C395        C396   1.400       .  A
C395        H403   1.083       .  S
C396        H404   1.079       .  S
C397        H405   1.087       .  S
C397        C398   1.348       .  D
C398        H406   1.084       .  S
C399        H407   1.087       .  S
C399        C400   1.349       .  D
C400        H408   1.081       .  S
C409        C417   1.484       .  S
C409        C410   1.402       .  A
C409        C414   1.406       .  A
C410        C411   1.397       .  A
C410        H419   1.083       .  S
C411        C412   1.408       .  A
C411        H420   1.080       .  S
C412        C415   1.487       .  S
C412        C413   1.405       .  A
C413        C414   1.399       .  A
C413        H421   1.083       .  S
C414        H422   1.082       .  S
C415        H423   1.087       .  S
C415        C416   1.346       .  D
C416        H424   1.083       .  S
C417        H425   1.087       .  S
C417        C418   1.344       .  D
C418        H426   1.085       .  S
C427        C435   1.481       .  S
C427        C428   1.402       .  A
C427        C432   1.405   1_455  A
C428        C429   1.398       .  A
C428        H437   1.083       .  S
C429        C430   1.409       .  A
C429        H438   1.081       .  S
C430        C433   1.484       .  S
C430        C431   1.402   1_455  A
C431        C432   1.395       .  A
C431        H439   1.083       .  S
C432        H440   1.082       .  S
C433        H441   1.088   1_455  S
C433        C434   1.344       .  D
C434        H442   1.084       .  S
C435        H443   1.087       .  S
C435        C436   1.345   1_455  D
C436        H444   1.085       .  S
C445        C453   1.497       .  S
C445        C446   1.407       .  A
C445        C450   1.409       .  A
C446        C447   1.401       .  A
C446        H455   1.083       .  S
C447        C448   1.408       .  A
C447        H456   1.080       .  S
C448        C451   1.494       .  S
C448        C449   1.405       .  A
C449        C450   1.400       .  A
C449        H457   1.083       .  S
C450        H458   1.079       .  S
C451        H459   1.087       .  S
C451        C452   1.349       .  D
C452        H460   1.083       .  S
C453        H461   1.087       .  S
C453        C454   1.350       .  D
C454        H462   1.081       .  S
C463        C471   1.493       .  S
C463        C464   1.406   1_455  A
C463        C468   1.408       .  A
C464        C465   1.400       .  A
C464        H473   1.083       .  S
C465        C466   1.406   1_655  A
C465        H474   1.081       .  S
C466        C469   1.490       .  S
C466        C467   1.405       .  A
C467        C468   1.399       .  A
C467        H475   1.083       .  S
C468        H476   1.080       .  S
C469        H477   1.087       .  S
C469        C470   1.349   1_455  D
C470        H478   1.084       .  S
C471        H479   1.087   1_455  S
C471        C472   1.349       .  D
C472        H480   1.082       .  S
C481        C489   1.481   1_556  S
C481        C482   1.403       .  A
C481        C486   1.405   1_556  A
C482        C483   1.398       .  A
C482        H491   1.083       .  S
C483        C484   1.406       .  A
C483        H492   1.082       .  S
C484        C487   1.483       .  S
C484        C485   1.404   1_556  A
C485        C486   1.398       .  A
C485        H493   1.083       .  S
C486        H494   1.082       .  S
C487        H495   1.087   1_556  S
C487        C488   1.346       .  D
C488        H496   1.085       .  S
C489        H497   1.087   1_554  S
C489        C490   1.345       .  D
C490        H498   1.086       .  S
C499        C507   1.496       .  S
C499        C500   1.406       .  A
C499        C504   1.408       .  A
C500        C501   1.402       .  A
C500        H509   1.083       .  S
C501        C502   1.407       .  A
C501        H510   1.081       .  S
C502        C505   1.494       .  S
C502        C503   1.406       .  A
C503        C504   1.402       .  A
C503        H511   1.083       .  S
C504        H512   1.081       .  S
C505        H513   1.086       .  S
C505        C506   1.350       .  D
C506        H514   1.083       .  S
C507        H515   1.086       .  S
C507        C508   1.350       .  D
C508        H516   1.083       .  S
C517        C525   1.487       .  S
C517        C518   1.403       .  A
C517        C522   1.408       .  A
C518        C519   1.396       .  A
C518        H527   1.084       .  S
C519        C520   1.407       .  A
C519        H528   1.081   1_556  S
C520        C523   1.486       .  S
C520        C521   1.404       .  A
C521        C522   1.399       .  A
C521        H529   1.084       .  S
C522        H530   1.081       .  S
C523        H531   1.087       .  S
C523        C524   1.346   1_556  D
C524        H532   1.084       .  S
C525        H533   1.087       .  S
C525        C526   1.346       .  D
C526        H534   1.084       .  S
C535        C543   1.486   1_455  S
C535        C536   1.406       .  A
C535        C540   1.403   1_455  A
C536        C537   1.402       .  A
C536        H545   1.083       .  S
C537        C538   1.407       .  A
C537        H546   1.081       .  S
C538        C541   1.489       .  S
C538        C539   1.406   1_455  A
C539        C540   1.397       .  A
C539        H547   1.083       .  S
C540        H548   1.082       .  S
C541        H549   1.087   1_455  S
C541        C542   1.351       .  D
C542        H550   1.083       .  S
C543        H551   1.087   1_655  S
C543        C544   1.349       .  D
C544        H552   1.085       .  S
C553        C561   1.489       .  S
C553        C554   1.403       .  A
C553        C558   1.408   1_655  A
C554        C555   1.400       .  A
C554        H563   1.083       .  S
C555        C556   1.409   1_655  A
C555        H564   1.080       .  S
C556        C559   1.492       .  S
C556        C557   1.405       .  A
C557        C558   1.399       .  A
C557        H565   1.083       .  S
C558        H566   1.081       .  S
C559        H567   1.087       .  S
C559        C560   1.347   1_455  D
C560        H568   1.083       .  S
C561        H569   1.087       .  S
C561        C562   1.346       .  D
C562        H570   1.085   1_655  S
C571        C579   1.497       .  S
C571        C572   1.405       .  A
C571        C576   1.410       .  A
C572        C573   1.402       .  A
C572        H581   1.084       .  S
C573        C574   1.410       .  A
C573        H582   1.081       .  S
C574        C577   1.496       .  S
C574        C575   1.404       .  A
C575        C576   1.402       .  A
C575        H583   1.083       .  S
C576        H584   1.081       .  S
C577        H585   1.087       .  S
C577        C578   1.348       .  D
C578        H586   1.084       .  S
C579        H587   1.087       .  S
C579        C580   1.348       .  D
C580        H588   1.084       .  S
