geometry optimzed in LAMMPS
_audit_creation_date              2020-12-01 
_audit_creation_method            'lammps2cif' 
_symmetry_space_group_name_H-M    'P1' 
_symmetry_Int_Tables_number       1 
_symmetry_cell_setting            triclinic 
loop_ 
_symmetry_equiv_pos_as_xyz 
  x,y,z 
_cell_length_a                    45.91474645 
_cell_length_b                    45.80354680921912 
_cell_length_c                    30.784396458667235 
_cell_angle_alpha                 90.05269328440612 
_cell_angle_beta                  90.084190872775 
_cell_angle_gamma                 119.85706296420898 
loop_ 
_atom_site_label 
_atom_site_type_symbol 
_atom_site_fract_x 
_atom_site_fract_y 
_atom_site_fract_z 
_atom_site_charge 
O1          O  0.54501239  0.07515444  0.06351743    -0.82100
C2          C  0.66462862  0.14765131  0.96837898     0.97300
O3          O  0.66008488  0.15067886  0.00789999    -0.71200
O4          O  0.61213189  0.16407443  0.01671310    -0.74800
Al5        Al  0.62216613  0.13226218  0.04342762     1.49000
C6          C  0.58312041  0.15987477  0.01129652     0.92500
O7          O  0.55568359  0.10035142  0.94316762    -0.81000
O8          O  0.57804331  0.03395289  0.99202321    -0.74600
Al9        Al  0.55213907  0.08853741  0.00378009     1.90100
O10         O  0.58399528  0.07524291  0.92433221    -0.73600
O11         O  0.64432063  0.08169895  0.01469106    -0.73500
O12         O  0.64452630  0.12153243  0.94744060    -0.79100
O13         O  0.63679343  0.10499251  0.07267487    -0.77300
O14         O  0.59525422  0.09970270  0.00694772    -1.13500
O15         O  0.58948533  0.12033374  0.08813237    -0.72700
C16         C  0.56247724  0.09317600  0.09503520     0.98100
C17         C  0.56700610  0.08901623  0.91405560     0.94400
Al18       Al  0.61130042  0.07945462  0.97290747     1.55600
O19         O  0.55774138  0.13146946  0.01707513    -0.77300
C20         C  0.65283161  0.09317687  0.05304827     0.98600
C21         C  0.54658827  0.02334374  0.98929254     0.93500
O22         O  0.53575141  0.04359395  0.98965675    -0.82600
O23         O  0.44022458  0.07823493  0.52646839    -0.82100
C24         C  0.58116635  0.13839365  0.48985415     0.97300
O25         O  0.56710598  0.15010857  0.51371093    -0.71200
O26         O  0.52119296  0.15580464  0.47236357    -0.74800
Al27       Al  0.52098302  0.13571331  0.52537705     1.49000
C28         C  0.49436471  0.15095814  0.45509136     0.92500
O29         O  0.48394182  0.08068358  0.42036529    -0.81000
O30         O  0.48807045  0.03525054  0.52504552    -0.74600
Al31       Al  0.46379210  0.07899933  0.47348399     1.90100
O32         O  0.51512771  0.05888762  0.44064400    -0.73600
O33         O  0.53998594  0.08411632  0.56241546    -0.73500
O34         O  0.56566290  0.10801314  0.47909757    -0.79100
O35         O  0.52259403  0.11936880  0.57993665    -0.77300
O36         O  0.50356011  0.09586674  0.50064802    -1.13500
O37         O  0.47841651  0.13044576  0.54323698    -0.72700
C38         C  0.44859586  0.10595607  0.54623302     0.98100
C39         C  0.50212109  0.06815269  0.41078179     0.94400
Al40       Al  0.52545742  0.07310660  0.50191225     1.55600
O41         O  0.46789868  0.12247848  0.45832721    -0.77300
C42         C  0.53394363  0.10054774  0.59090883     0.98600
C43         C  0.46549595  0.01719219  0.49877338     0.91700
O44         O  0.45129052  0.03064782  0.47789323    -0.82600
O45         O  0.53114594  0.42678043  0.06605517    -0.82100
C46         C  0.50082952  0.31208172  0.96643474     0.97300
O47         O  0.50952979  0.31683849  0.00563606    -0.71200
O48         O  0.56598531  0.37090748  0.01702498    -0.74800
Al49       Al  0.52287408  0.35333597  0.04354266     1.49000
C50         C  0.58691741  0.40140439  0.01050404     0.92500
O51         O  0.54575399  0.41960157  0.94513528    -0.81000
O52         O  0.45554798  0.38432114  0.99748260    -0.74600
Al53       Al  0.53758148  0.42135726  0.00604188     1.90100
O54         O  0.49289276  0.38576579  0.92731834    -0.73600
O55         O  0.44734359  0.32062731  0.01747878    -0.73500
O56         O  0.48857086  0.32823054  0.94818455    -0.79100
O57         O  0.48107191  0.33120131  0.07297757    -0.77300
O58         O  0.51099006  0.37682290  0.00888024    -1.13500
O59         O  0.53864304  0.38570708  0.08951447    -0.72700
C60         C  0.53543738  0.41114629  0.09698961     0.98100
C61         C  0.52273918  0.40670336  0.91664730     0.94400
Al62       Al  0.47394692  0.35637721  0.97591651     1.55600
O63         O  0.57882339  0.42334288  0.01743572    -0.77300
C64         C  0.45311180  0.31267128  0.05475162     0.98600
C65         C  0.47268269  0.41636399  0.99474733     0.93500
O66         O  0.50404622  0.43116157  0.99398909    -0.82600
O67         O  0.63713118  0.52695915  0.52880474    -0.82100
C68         C  0.55569436  0.38528102  0.49626267     0.97300
O69         O  0.58069907  0.39941078  0.52144879    -0.71200
O70         O  0.63339303  0.44427449  0.47921675    -0.74800
Al71       Al  0.61299845  0.44609156  0.53128293     1.49000
C72         C  0.65465105  0.47063303  0.46008300     0.92500
O73         O  0.59540154  0.48222854  0.42282178    -0.81000
O74         O  0.54680237  0.47947126  0.52771039    -0.74600
Al75       Al  0.61418322  0.50267908  0.47623052     1.90100
O76         O  0.54286547  0.45171586  0.44447478    -0.73600
O77         O  0.54237012  0.42708963  0.56509257    -0.73500
O78         O  0.54194614  0.40128676  0.48276494    -0.79100
O79         O  0.59479382  0.44706934  0.58528899    -0.77300
O80         O  0.59119529  0.46328163  0.50420129    -1.13500
O81         O  0.65037330  0.48855060  0.54766678    -0.72700
C82         C  0.65583085  0.51846975  0.54974959     0.98100
C83         C  0.56446069  0.46473678  0.41425312     0.94400
Al84       Al  0.54678809  0.44159200  0.50503559     1.55600
O85         O  0.65251892  0.49719653  0.46171614    -0.77300
C86         C  0.56442846  0.43596951  0.59469269     0.98600
C87         C  0.55147503  0.50205120  0.50127757     0.93500
O88         O  0.57902942  0.51601412  0.48047483    -0.82600
O89         O  0.88517573  0.32673937  0.53035534    -0.82100
C90         C  0.82879749  0.41205597  0.49747252     0.97300
O91         O  0.81775584  0.38715233  0.52283903    -0.71200
O92         O  0.80804622  0.33344330  0.47970154    -0.74800
Al93       Al  0.83062978  0.35356683  0.53201362     1.49000
C94         C  0.81276120  0.31189110  0.46025508     0.92500
O95         O  0.88405121  0.36945973  0.42439303    -0.81000
O96         O  0.93029044  0.41872772  0.52862488    -0.74600
Al97       Al  0.88509913  0.35058435  0.47766826     1.90100
O98         O  0.90701990  0.42248207  0.44453014    -0.73600
O99         O  0.88284967  0.42402341  0.56541604    -0.73500
O100        O  0.85800944  0.42465096  0.48277117    -0.79100
O101        O  0.85035333  0.37151875  0.58587786    -0.77300
O102        O  0.86955599  0.37453315  0.50506555    -1.13500
O103        O  0.83399929  0.31500759  0.54806711    -0.72700
C104        C  0.85748190  0.30814150  0.55022034     0.98100
C105        C  0.89733788  0.40021510  0.41476700     0.94400
Al106      Al  0.89291431  0.41912179  0.50538347     1.55600
O107        O  0.84098787  0.31313969  0.46241998    -0.77300
C108        C  0.86976378  0.40198520  0.59505094     0.98600
C109        C  0.94794756  0.41288674  0.50325837     0.93500
O110        O  0.93385905  0.38507697  0.48259203    -0.82600
O111        O  0.89858532  0.43624460  0.06577461    -0.82100
C112        C  0.81867323  0.47229482  0.96552548     0.97300
O113        O  0.81327239  0.46099541  0.00346726    -0.71200
O114        O  0.80924945  0.40347511  0.01157054    -0.74800
Al115      Al  0.83464750  0.44580302  0.04106216     1.49000
C116        C  0.81840072  0.38210149  0.00545634     0.92500
O117        O  0.87842959  0.42274038  0.94462796    -0.81000
O118        O  0.93469728  0.51221162  0.99750875    -0.74600
Al119      Al  0.88770526  0.43029504  0.00541852     1.90100
O120        O  0.89765101  0.47589065  0.92700668    -0.73600
O121        O  0.88105547  0.52241628  0.01982597    -0.73500
O122        O  0.84717150  0.48417451  0.94827310    -0.79100
O123        O  0.85414762  0.48697219  0.07261873    -0.77300
O124        O  0.87072240  0.45785834  0.00798242    -1.13500
O125        O  0.84939760  0.42816036  0.08711099    -0.72700
C126        C  0.87792400  0.43161235  0.09581441     0.98100
C127        C  0.88828650  0.44577138  0.91626028     0.94400
Al128      Al  0.88878465  0.49565944  0.97637856     1.55600
O129        O  0.84767141  0.38927842  0.01563667    -0.77300
C130        C  0.86632998  0.51611657  0.05650231     0.98600
C131        C  0.94882469  0.49442073  0.99389526     0.93500
O132        O  0.93163528  0.46302184  0.99392908    -0.82600
O133        O  0.56074271  0.76921580  0.39017537    -0.82100
C134        C  0.48172429  0.80513274  0.28825043     0.97300
O135        O  0.47726122  0.79692150  0.32754302    -0.71200
O136        O  0.47177246  0.73846530  0.33529842    -0.74800
Al137      Al  0.49806901  0.78046942  0.36485302     1.49000
C138        C  0.48039895  0.71668907  0.32906431     0.92500
O139        O  0.54074860  0.75534714  0.26882857    -0.81000
O140        O  0.59773741  0.84516966  0.32070766    -0.74600
Al141      Al  0.55000109  0.76325909  0.32959303     1.90100
O142        O  0.56054256  0.80832629  0.25022992    -0.73600
O143        O  0.54404799  0.85619528  0.34196296    -0.73500
O144        O  0.51001847  0.81615014  0.27070188    -0.79100
O145        O  0.51931524  0.82153496  0.39616905    -0.77300
O146        O  0.53373903  0.79138713  0.33157694    -1.13500
O147        O  0.51167589  0.76161742  0.41074911    -0.72700
C148        C  0.53978132  0.76425282  0.41995889     0.98100
C149        C  0.54972997  0.77785581  0.23990214     0.94400
Al150      Al  0.55183443  0.82867745  0.29916201     1.55600
O151        O  0.50932594  0.72293722  0.33972618    -0.77300
C152        C  0.53025251  0.85025585  0.37933161     0.98600
C153        C  0.61150169  0.82693571  0.31810821     0.93500
O154        O  0.59402736  0.79555156  0.31831544    -0.82600
O155        O  0.55139398  0.65500004  0.85319747    -0.82100
C156        C  0.48270389  0.72845385  0.81918355     0.97300
O157        O  0.47275016  0.70302690  0.84332337    -0.71200
O158        O  0.47030355  0.65270299  0.80134895    -0.74800
Al159      Al  0.49029937  0.67337223  0.85405389     1.49000
C160        C  0.47747774  0.63292716  0.78202928     0.92500
O161        O  0.54552281  0.69500433  0.74736484    -0.81000
O162        O  0.58861806  0.74525243  0.85299264    -0.74600
Al163      Al  0.54857993  0.67700003  0.80064678     1.90100
O164        O  0.56403342  0.74721898  0.76893488    -0.73600
O165        O  0.53830458  0.74479054  0.89009532    -0.73500
O166        O  0.51274657  0.74429973  0.80727857    -0.79100
O167        O  0.50690844  0.69187990  0.90872226    -0.77300
O168        O  0.52947421  0.69764373  0.82842447    -1.13500
O169        O  0.49872797  0.63799730  0.87109149    -0.72700
C170        C  0.52463487  0.63494167  0.87379145     0.98100
C171        C  0.55659824  0.72566608  0.73855313     0.94400
Al172      Al  0.54949993  0.74207009  0.82984794     1.55600
O173        O  0.50665918  0.63659745  0.78507946    -0.77300
C174        C  0.52471071  0.72232673  0.91918933     0.98600
C175        C  0.60767216  0.74180641  0.82729238     0.93500
O176        O  0.59575378  0.71454932  0.80574405    -0.82600
O177        O  0.10601069  0.41270367  0.85207638    -0.82100
C178        C  0.24634281  0.46788872  0.81835064     0.97300
O179        O  0.23356247  0.47809008  0.84661787    -0.71200
O180        O  0.19081371  0.48969625  0.80569812    -0.74800
Al181      Al  0.18737060  0.46565428  0.85630499     1.49000
C182        C  0.16551446  0.48640856  0.78546221     0.92500
O183        O  0.14981315  0.41570847  0.74571898    -0.81000
O184        O  0.15165126  0.36565564  0.84718176    -0.74600
Al185      Al  0.12993295  0.41364138  0.79930676     1.90100
O186        O  0.17843756  0.39086472  0.76402866    -0.73600
O187        O  0.20497122  0.41224767  0.88532327    -0.73500
O188        O  0.22946471  0.43883579  0.80290812    -0.79100
O189        O  0.18500609  0.44419546  0.90884736    -0.77300
O190        O  0.16887777  0.42748476  0.82713606    -1.13500
O191        O  0.14588945  0.46291699  0.87290110    -0.72700
C192        C  0.11536866  0.43996152  0.87339843     0.98100
C193        C  0.16663776  0.40195822  0.73505636     0.94400
Al194      Al  0.18948370  0.40356192  0.82515994     1.55600
O195        O  0.13789937  0.45874855  0.78639382    -0.77300
C196        C  0.19655714  0.42490074  0.91625022     0.98600
C197        C  0.12770453  0.34913135  0.82178621     0.93500
O198        O  0.11483312  0.36446230  0.80197865    -0.82600
O199        O  0.20950217  0.40969759  0.38699671    -0.82100
C200        C  0.32776346  0.48401886  0.28977591     0.97300
O201        O  0.32287069  0.48927863  0.32841185    -0.71200
O202        O  0.27200137  0.49796959  0.33657724    -0.74800
Al203      Al  0.28544216  0.46971966  0.36523319     1.49000
C204        C  0.24230375  0.49141089  0.33062216     0.92500
O205        O  0.21960484  0.42892167  0.26548834    -0.81000
O206        O  0.24808727  0.36983765  0.32328467    -0.74600
Al207      Al  0.21641554  0.42015316  0.32664781     1.90100
O208        O  0.25023059  0.40557106  0.25066618    -0.73600
O209        O  0.31325176  0.42221898  0.34288422    -0.73500
O210        O  0.30934102  0.45604273  0.27149667    -0.79100
O211        O  0.30350203  0.44698959  0.39707231    -0.77300
O212        O  0.26027579  0.43466044  0.33099949    -1.13500
O213        O  0.25263024  0.45679665  0.41013689    -0.72700
C214        C  0.22584395  0.42949701  0.41772160     0.98100
C215        C  0.23141871  0.41681154  0.23821049     0.94400
Al216      Al  0.27863739  0.41482370  0.30017094     1.55600
O217        O  0.21828757  0.46201756  0.33527285    -0.77300
C218        C  0.32129585  0.43617145  0.38003036     0.98600
C219        C  0.21633111  0.35683945  0.31957193     0.93500
O220        O  0.20328205  0.37514336  0.31675720    -0.82600
O221        O  0.19959135  0.75330203  0.40250801    -0.82100
C222        C  0.15888680  0.64067883  0.29467264     0.97300
O223        O  0.16817916  0.64324694  0.33361614    -0.71200
O224        O  0.22743759  0.69377321  0.34479727    -0.74800
Al225      Al  0.18564702  0.67905230  0.37373115     1.49000
C226        C  0.25077874  0.72375472  0.34215809     0.92500
O227        O  0.21330668  0.74908460  0.28069458    -0.81000
O228        O  0.12437762  0.71901378  0.33500483    -0.74600
Al229      Al  0.20579367  0.74973660  0.34199607     1.90100
O230        O  0.15966275  0.71982034  0.26313641    -0.73600
O231        O  0.11066159  0.65258775  0.35070930    -0.73500
O232        O  0.14949251  0.65989780  0.27880374    -0.79100
O233        O  0.14473887  0.65986443  0.40468464    -0.77300
O234        O  0.17630102  0.70582383  0.34229996    -1.13500
O235        O  0.20490000  0.71002716  0.42166943    -0.72700
C236        C  0.20263661  0.73565914  0.43185876     0.98100
C237        C  0.19007225  0.73855190  0.25238493     0.94400
Al238      Al  0.13889603  0.68917226  0.31016427     1.55600
O239        O  0.24556465  0.74736246  0.35195828    -0.77300
C240        C  0.11617916  0.64315675  0.38725092     0.98600
C241        C  0.14339422  0.75078220  0.33176905     0.93500
O242        O  0.17468132  0.76362937  0.33173351    -0.82600
O243        O  0.30136668  0.85954880  0.86133007    -0.82100
C244        C  0.22337524  0.71789517  0.83175839     0.97300
O245        O  0.24688756  0.73205711  0.85912686    -0.71200
O246        O  0.29855725  0.77632626  0.81600967    -0.74800
Al247      Al  0.27851930  0.77917520  0.86738472     1.49000
C248        C  0.31885753  0.80182065  0.79474626     0.92500
O249        O  0.25916320  0.81208756  0.75710894    -0.81000
O250        O  0.21013754  0.80943093  0.86205142    -0.74600
Al251      Al  0.27811890  0.83375703  0.80984734     1.90100
O252        O  0.20681394  0.78150515  0.77898155    -0.73600
O253        O  0.20760424  0.75784163  0.90033905    -0.73500
O254        O  0.20884621  0.73298235  0.81778325    -0.79100
O255        O  0.26034471  0.78104401  0.92084452    -0.77300
O256        O  0.25599512  0.79503058  0.83915883    -1.13500
O257        O  0.31558575  0.82231288  0.88206565    -0.72700
C258        C  0.32072451  0.85214715  0.88256375     0.98100
C259        C  0.22831545  0.79413918  0.74857536     0.94400
Al260      Al  0.21160183  0.77220529  0.83989347     1.55600
O261        O  0.31680007  0.82848492  0.79522755    -0.77300
C262        C  0.22972756  0.76804122  0.93008802     0.98600
C263        C  0.21497519  0.83227862  0.83594630     0.93500
O264        O  0.24225714  0.84608926  0.81439463    -0.82600
O265        O  0.21600283  0.08595310  0.73706963    -0.82100
C266        C  0.14059410  0.12492838  0.63772958     0.97300
O267        O  0.13735882  0.09895573  0.65612441    -0.71200
O268        O  0.14853302  0.05580164  0.69773873    -0.74800
Al269      Al  0.16161576  0.10239412  0.70702636     1.49000
C270        C  0.15896443  0.04205634  0.67116160     0.92500
O271        O  0.23514257  0.10902659  0.61537658    -0.81000
O272        O  0.26254154  0.17376924  0.65098261    -0.74600
Al273      Al  0.22353273  0.09953630  0.67673798     1.90100
O274        O  0.21025194  0.13764029  0.59660725    -0.73600
O275        O  0.21541600  0.18416712  0.70132861    -0.73500
O276        O  0.16881575  0.15184588  0.63720694    -0.79100
O277        O  0.16540293  0.14485717  0.72311515    -0.77300
O278        O  0.19967301  0.12030580  0.67799557    -1.13500
O279        O  0.18283559  0.10453654  0.75963493    -0.72700
C280        C  0.20310995  0.09426356  0.76770086     0.98100
C281        C  0.22320153  0.11998385  0.58646466     0.94400
Al282      Al  0.21355148  0.15899766  0.64926895     1.55600
O283        O  0.18807663  0.05856329  0.65614636    -0.77300
C284        C  0.18816474  0.17559449  0.72208025     0.98600
C285        C  0.27799511  0.16109143  0.67084730     0.93500
O286        O  0.26176226  0.13797676  0.69734785    -0.82600
O287        O  0.22608371  0.99480475  0.19788607    -0.82100
C288        C  0.16504530  0.07690087  0.17628460     0.97300
O289        O  0.15716759  0.05369917  0.20363046    -0.71200
O290        O  0.14584086  0.00057265  0.15946739    -0.74800
Al291      Al  0.17160813  0.02112781  0.20902557     1.49000
C292        C  0.14939007  0.97959393  0.13697122     0.92500
O293        O  0.21809279  0.03640500  0.09499047    -0.81000
O294        O  0.27067001  0.08868506  0.19412032    -0.74600
Al295      Al  0.22241348  0.01819677  0.14705982     1.90100
O296        O  0.24109950  0.08949135  0.11470121    -0.73600
O297        O  0.22414656  0.09235607  0.23760189    -0.73500
O298        O  0.19318218  0.08993004  0.15814760    -0.79100
O299        O  0.19473310  0.04013874  0.26047905    -0.77300
O300        O  0.20846685  0.04214788  0.17768197    -1.13500
O301        O  0.17644560  0.98310528  0.22223484    -0.72700
C302        C  0.19975086  0.97604664  0.22002181     0.98100
C303        C  0.23081746  0.06704222  0.08528066     0.94400
Al304      Al  0.23067527  0.08674686  0.17635901     1.55600
O305        O  0.17750167  0.98055218  0.13531076    -0.77300
C306        C  0.21307798  0.07105771  0.26834265     0.98600
C307        C  0.28642574  0.08136534  0.16716164     0.93500
O308        O  0.27098061  0.05292525  0.14801363    -0.82600
O309        O  0.87143570  0.73905787  0.73478302    -0.82100
C310        C  0.98820320  0.81176109  0.63399219     0.97300
O311        O  0.98317801  0.81865995  0.67178423    -0.71200
O312        O  0.93241184  0.82739285  0.68177031    -0.74800
Al313      Al  0.94676476  0.79963363  0.71036541     1.49000
C314        C  0.90247693  0.82082570  0.67874780     0.92500
O315        O  0.88097617  0.75944261  0.61359877    -0.81000
O316        O  0.90786566  0.69868476  0.67128613    -0.74600
Al317      Al  0.87745156  0.74975152  0.67445696     1.90100
O318        O  0.90977937  0.73402492  0.59798128    -0.73600
O319        O  0.97336443  0.75016698  0.68945938    -0.73500
O320        O  0.96993105  0.78311614  0.61740679    -0.79100
O321        O  0.96573077  0.77780670  0.74197565    -0.77300
O322        O  0.92121625  0.76394658  0.67767847    -1.13500
O323        O  0.91461527  0.78680275  0.75654065    -0.72700
C324        C  0.88806920  0.75935629  0.76503199     0.98100
C325        C  0.89278715  0.74749532  0.58599327     0.94400
Al326      Al  0.93867207  0.74298924  0.64713609     1.55600
O327        O  0.87898353  0.79136191  0.68468119    -0.77300
C328        C  0.98238619  0.76545240  0.72569223     0.98600
C329        C  0.87626646  0.68607947  0.66694194     0.93500
O330        O  0.86367204  0.70474049  0.66353285    -0.82600
O331        O  0.77518662  0.74349688  0.20062832    -0.82100
C332        C  0.91590058  0.80892166  0.16366630     0.97300
O333        O  0.90171975  0.81856085  0.19056215    -0.71200
O334        O  0.85486144  0.82365392  0.14901572    -0.74800
Al335      Al  0.85485133  0.80246331  0.20096217     1.49000
C336        C  0.82802014  0.81768167  0.13041235     0.92500
O337        O  0.81852417  0.74716569  0.09333166    -0.81000
O338        O  0.82747575  0.70401387  0.19809236    -0.74600
Al339      Al  0.79900889  0.74529270  0.14746770     1.90100
O340        O  0.85151580  0.72749241  0.11364689    -0.73600
O341        O  0.87922533  0.75481864  0.23348994    -0.73500
O342        O  0.90083377  0.77946006  0.14919652    -0.79100
O343        O  0.85581764  0.78421993  0.25445285    -0.77300
O344        O  0.83893745  0.76345305  0.17419566    -1.13500
O345        O  0.81189978  0.79582831  0.21821617    -0.72700
C346        C  0.78244773  0.77080526  0.22055014     0.98100
C347        C  0.83708198  0.73501269  0.08394742     0.94400
Al348      Al  0.86289094  0.74288681  0.17374023     1.55600
O349        O  0.80216476  0.78850898  0.13243101    -0.77300
C350        C  0.86973155  0.76729056  0.26347217     0.98600
C351        C  0.80390750  0.68501443  0.17344969     0.93500
O352        O  0.78843091  0.69743135  0.15296565    -0.82600
O353        O  0.85117254  0.08948564  0.75500630    -0.82100
C354        C  0.82582055  0.98099235  0.64467286     0.97300
O355        O  0.83124341  0.98289536  0.68479643    -0.71200
O356        O  0.88784869  0.03560378  0.70243475    -0.74800
Al357      Al  0.84370056  0.01774706  0.72542686     1.49000
C358        C  0.90976454  0.06628452  0.70057973     0.92500
O359        O  0.87527295  0.09077479  0.63577914    -0.81000
O360        O  0.78157949  0.05412516  0.67468324    -0.74600
Al361      Al  0.86230088  0.08846193  0.69538756     1.90100
O362        O  0.82411489  0.05881539  0.60985714    -0.73600
O363        O  0.77045612  0.98871878  0.69177405    -0.73500
O364        O  0.81620583  0.99934119  0.62637404    -0.79100
O365        O  0.80047627  0.99604524  0.75048207    -0.77300
O366        O  0.83497291  0.04410546  0.69198053    -1.13500
O367        O  0.85801704  0.04718900  0.77440073    -0.72700
C368        C  0.85406601  0.07176485  0.78440228     0.98100
C369        C  0.85488402  0.07977515  0.60413663     0.94400
Al370      Al  0.80064790  0.02660453  0.65433277     1.55600
O371        O  0.90211195  0.08813765  0.71069280    -0.77300
C372        C  0.77357925  0.97895654  0.72937519     0.98600
C373        C  0.79933734  0.08618922  0.67510644     0.93500
O374        O  0.83043516  0.10030445  0.68055030    -0.82600
O375        O  0.96850962  0.18919730  0.21212347    -0.82100
C376        C  0.88498512  0.04717210  0.18493967     0.97300
O377        O  0.91145045  0.06117520  0.20742782    -0.71200
O378        O  0.96305760  0.10518257  0.16464868    -0.74800
Al379      Al  0.94372845  0.10774989  0.21723910     1.49000
C380        C  0.98500111  0.13126946  0.14607031     0.92500
O381        O  0.92549859  0.14092502  0.10898116    -0.81000
O382        O  0.87752543  0.14451427  0.21142245    -0.74600
Al383      Al  0.94504858  0.16357640  0.16084160     1.90100
O384        O  0.87298314  0.11155631  0.13174426    -0.73600
O385        O  0.87460545  0.09427905  0.25517659    -0.73500
O386        O  0.87012738  0.06290423  0.17540085    -0.79100
O387        O  0.92662694  0.10842745  0.27160484    -0.77300
O388        O  0.92171533  0.12527704  0.19107497    -1.13500
O389        O  0.98145237  0.15084803  0.23310673    -0.72700
C390        C  0.98761550  0.18115666  0.23303006     0.98100
C391        C  0.89444762  0.12337328  0.10107365     0.94400
Al392      Al  0.87718382  0.10486306  0.19354381     1.55600
O393        O  0.98338294  0.15801792  0.14736781    -0.77300
C394        C  0.89739059  0.10053656  0.28312768     0.98600
C395        C  0.88320956  0.16584563  0.18246772     0.93500
O396        O  0.91096229  0.17797523  0.16248549    -0.82600
C397        C  0.85050487  0.06377120  0.90722027    -0.27900
C398        C  0.85740443  0.09586180  0.92032243     0.01700
C399        C  0.86107147  0.11957611  0.88843042     0.29800
C400        C  0.85910105  0.11133673  0.84420624    -0.19700
C401        C  0.85355197  0.07955936  0.83109978    -0.29100
C402        C  0.84843284  0.05544687  0.86329945     0.43900
C403        C  0.86422563  0.10502285  0.96692626     0.05000
O404        O  0.86743657  0.15113375  0.90008794    -0.57600
H405        H  0.86279449  0.13013931  0.82017840     0.18000
O406        O  0.84112676  0.02344706  0.85235788    -0.64300
H407        H  0.84799933  0.04533225  0.93114220     0.16400
C408        C  0.84226590  0.08431351  0.99975921     0.28700
C409        C  0.85186731  0.09100195  0.04353753    -0.25200
C410        C  0.88341738  0.11797155  0.05514181    -0.24500
C411        C  0.90452551  0.13969947  0.02225645     0.40100
C412        C  0.89497630  0.13294213  0.97874636    -0.26900
O413        O  0.81128300  0.05773780  0.98927116    -0.58800
H414        H  0.83489914  0.07457634  0.06830197     0.15800
O415        O  0.93486614  0.16745467  0.03205150    -0.60300
H416        H  0.91229912  0.14899919  0.95400280     0.14200
H417        H  0.86270724  0.02352731  0.85490854     0.46100
H418        H  0.81248031  0.03720887  0.99618261     0.41400
H419        H  0.92956812  0.18541696  0.03918404     0.44900
H420        H  0.84549457  0.14814569  0.90961321     0.36400
C421        C  0.90027466  0.09448336  0.49709663    -0.27900
C422        C  0.87838619  0.09876355  0.46916793     0.01700
C423        C  0.85137199  0.10097110  0.48710225     0.29800
C424        C  0.84512636  0.09647296  0.53166133    -0.19700
C425        C  0.86603418  0.09064886  0.55928842    -0.29100
C426        C  0.89432317  0.09058199  0.54196814     0.43900
C427        C  0.88300134  0.09955287  0.42136972     0.05000
O428        O  0.83046006  0.10676335  0.46117440    -0.57600
H429        H  0.82331820  0.09670916  0.54459067     0.18000
O430        O  0.91506913  0.08470520  0.56810541    -0.64300
H431        H  0.92120611  0.09272078  0.48390094     0.16400
C432        C  0.91415381  0.12169163  0.40237821     0.28700
C433        C  0.91806821  0.12161598  0.35742335    -0.25200
C434        C  0.89115719  0.09992771  0.33033693    -0.24500
C435        C  0.85989272  0.07790019  0.34917714     0.40100
C436        C  0.85605757  0.07766611  0.39441970    -0.26900
O437        O  0.94092037  0.14367317  0.42741570    -0.58800
H438        H  0.94233895  0.13894541  0.34360394     0.15800
O439        O  0.83354774  0.05535114  0.32405813    -0.60300
H440        H  0.83206825  0.05997047  0.40859372     0.14200
H441        H  0.90591959  0.06003065  0.56696151     0.46100
H442        H  0.93881772  0.16414027  0.42983202     0.41400
H443        H  0.81985669  0.06621107  0.31844362     0.44900
H444        H  0.84056507  0.13158718  0.46055607     0.36400
C445        C  0.86171369  0.90671972  0.09859377    -0.27900
C446        C  0.83795696  0.91291277  0.11861529     0.01700
C447        C  0.80652638  0.88564450  0.13030541     0.29800
C448        C  0.80090747  0.85266973  0.12714346    -0.19700
C449        C  0.82671100  0.84694516  0.11300843    -0.29100
C450        C  0.85616477  0.87392004  0.09543062     0.43900
C451        C  0.84900321  0.94698886  0.13562929     0.05000
O452        O  0.78255705  0.89118258  0.14887123    -0.57600
H453        H  0.77816420  0.83225431  0.14093153     0.18000
O454        O  0.88152285  0.86897334  0.08050141    -0.64300
H455        H  0.88589277  0.92758068  0.08917685     0.16400
C456        C  0.87027904  0.95865389  0.17218431     0.28700
C457        C  0.88141585  0.99105756  0.18835559    -0.25200
C458        C  0.87161867  0.01236560  0.16849455    -0.24500
C459        C  0.85015754  0.00050009  0.13170707     0.40100
C460        C  0.83886593  0.96791710  0.11576583    -0.26900
O461        O  0.87973803  0.93814800  0.19285839    -0.58800
H462        H  0.89775906  0.99949977  0.21653666     0.15800
O463        O  0.84057295  0.02068690  0.11046175    -0.60300
H464        H  0.82262088  0.95916497  0.08749721     0.14200
H465        H  0.87805427  0.86611340  0.04864630     0.46100
H466        H  0.90186312  0.94402115  0.18026836     0.41400
H467        H  0.85871831  0.03361153  0.08920535     0.44900
H468        H  0.78716495  0.89284231  0.18053826     0.36400
C469        C  0.85713174  0.87028583  0.67598674    -0.27900
C470        C  0.86943934  0.88886529  0.63741553     0.01700
C471        C  0.89535920  0.88723841  0.61482657     0.29800
C472        C  0.90776704  0.86668815  0.63030142    -0.19700
C473        C  0.89396299  0.84687379  0.66747749    -0.29100
C474        C  0.86871379  0.84903268  0.69055231     0.43900
C475        C  0.85604040  0.91102821  0.62320881     0.05000
O476        O  0.90803667  0.90478494  0.57698710    -0.57600
H477        H  0.92694597  0.86488104  0.61197682     0.18000
O478        O  0.85479238  0.83000617  0.72710079    -0.64300
H479        H  0.83836367  0.87219484  0.69508415     0.16400
C480        C  0.82128849  0.89981773  0.62518867     0.28700
C481        C  0.81007115  0.92323966  0.62436420    -0.25200
C482        C  0.83304269  0.95768074  0.62077823    -0.24500
C483        C  0.86689306  0.96821609  0.61196861     0.40100
C484        C  0.87832742  0.94502693  0.61372003    -0.26900
O485        O  0.79838689  0.86620433  0.63000131    -0.58800
H486        H  0.78391493  0.91481358  0.63120212     0.15800
O487        O  0.88957417  0.00175237  0.60643519    -0.60300
H488        H  0.90507271  0.95433981  0.61166951     0.14200
H489        H  0.86942562  0.84369226  0.75141999     0.46100
H490        H  0.78791363  0.86398669  0.65887893     0.41400
H491        H  0.90206822  0.00928392  0.63421874     0.44900
H492        H  0.89400505  0.88923357  0.55357264     0.36400
C493        C  0.87684055  0.73258871  0.97693725    -0.27900
C494        C  0.85276572  0.73074613  0.94710232     0.01700
C495        C  0.82200994  0.72618298  0.96270942     0.29800
C496        C  0.81665779  0.72591772  0.00747006    -0.19700
C497        C  0.84155134  0.72986859  0.03743831    -0.29100
C498        C  0.87127514  0.73178589  0.02180435     0.43900
C499        C  0.86139663  0.73740435  0.90036228     0.05000
O500        O  0.79768272  0.72364755  0.93451944    -0.57600
H501        H  0.79330846  0.72373418  0.01875148     0.18000
O502        O  0.89606663  0.73536379  0.04985155    -0.64300
H503        H  0.90055015  0.73585116  0.96534472     0.16400
C504        C  0.88900053  0.76820162  0.88743516     0.28700
C505        C  0.89683549  0.77495155  0.84347054    -0.25200
C506        C  0.87739283  0.75146263  0.81119133    -0.24500
C507        C  0.84932646  0.72068886  0.82414989     0.40100
C508        C  0.84155026  0.71391225  0.86844320    -0.26900
O509        O  0.90842466  0.79211063  0.91763857    -0.58800
H510        H  0.91846679  0.79882140  0.83478053     0.15800
O511        O  0.82979955  0.69670394  0.79411513    -0.60300
H512        H  0.82011490  0.69014513  0.87793896     0.14200
H513        H  0.89108245  0.71209210  0.05609844     0.46100
H514        H  0.89721018  0.80559447  0.92229749     0.41400
H515        H  0.81175238  0.70171180  0.78647569     0.44900
H516        H  0.80265001  0.74710704  0.92979301     0.36400
C517        C  0.90437879  0.75698013  0.37136059    -0.27900
C518        C  0.88051392  0.75664661  0.40033607     0.01700
C519        C  0.85295437  0.75846837  0.38373399     0.29800
C520        C  0.84983885  0.76131369  0.33915087    -0.19700
C521        C  0.87374522  0.76209099  0.30998456    -0.29100
C522        C  0.90105881  0.75954713  0.32631606     0.43900
C523        C  0.88410858  0.75441092  0.44787800     0.05000
O524        O  0.82885006  0.75753585  0.41090958    -0.57600
H525        H  0.82843096  0.76290888  0.32729348     0.18000
O526        O  0.92550265  0.76146986  0.29897894    -0.64300
H527        H  0.92591133  0.75589443  0.38375762     0.16400
C528        C  0.88518777  0.72686523  0.46617135     0.28700
C529        C  0.88694365  0.72445659  0.51130275    -0.25200
C530        C  0.88762213  0.74927474  0.53891225    -0.24500
C531        C  0.88650746  0.77685316  0.52058092     0.40100
C532        C  0.88472364  0.77922910  0.47539908    -0.26900
O533        O  0.88313570  0.70150735  0.44028651    -0.58800
H534        H  0.88778492  0.70304314  0.52477277     0.15800
O535        O  0.88804635  0.80204112  0.54634306    -0.60300
H536        H  0.88404196  0.80066725  0.46170740     0.14200
H537        H  0.91868190  0.73778691  0.29189659     0.46100
H538        H  0.90651471  0.70591282  0.43773607     0.41400
H539        H  0.91234161  0.81837634  0.54978974     0.44900
H540        H  0.81336616  0.73330285  0.41664047     0.36400
C541        C  0.03821928  0.09545060  0.11123198    -0.27900
C542        C  0.06835118  0.11794083  0.13212814     0.01700
C543        C  0.07291291  0.14881768  0.14785844     0.29800
C544        C  0.04628564  0.15542402  0.14623097    -0.19700
C545        C  0.01491254  0.13107971  0.12997922    -0.29100
C546        C  0.01154130  0.10189506  0.11001910     0.43900
C547        C  0.09297567  0.10716744  0.14241496     0.05000
O548        O  0.10215938  0.17121891  0.16844964    -0.57600
H549        H  0.04905455  0.17776882  0.16223331     0.18000
O550        O  0.98125395  0.07800637  0.09315253    -0.64300
H551        H  0.03466304  0.07184302  0.09843681     0.16400
C552        C  0.08405531  0.07947256  0.16993665     0.28700
C553        C  0.10789518  0.07030256  0.18120913    -0.25200
C554        C  0.14085891  0.08827831  0.16513870    -0.24500
C555        C  0.14970689  0.11619080  0.13764252     0.40100
C556        C  0.12580170  0.12537759  0.12653867    -0.26900
O557        O  0.05241919  0.06206177  0.18736606    -0.58800
H558        H  0.10039271  0.04888793  0.20245341     0.15800
O559        O  0.18153019  0.13465602  0.12119129    -0.60300
H560        H  0.13290876  0.14684232  0.10551852     0.14200
H561        H  0.97939867  0.08710755  0.06472152     0.46100
H562        H  0.04020037  0.04163131  0.16905826     0.41400
H563        H  0.19420141  0.15233358  0.14323571     0.44900
H564        H  0.09836009  0.16499544  0.19961822     0.36400
C565        C  0.06035900  0.93095820  0.10028004    -0.27900
C566        C  0.05254863  0.89870171  0.11371199     0.01700
C567        C  0.07846108  0.89215413  0.12482908     0.29800
C568        C  0.11170942  0.91863245  0.12616175    -0.19700
C569        C  0.11895320  0.95168704  0.11788831    -0.29100
C570        C  0.09337045  0.95749586  0.10245336     0.43900
C571        C  0.01770854  0.87494279  0.12594111     0.05000
O572        O  0.07115019  0.86066814  0.13822192    -0.57600
H573        H  0.13107215  0.91389836  0.13859520     0.18000
O574        O  0.09977491  0.98958964  0.09420354    -0.64300
H575        H  0.04043124  0.93617739  0.09210082     0.16400
C576        C  0.00658894  0.87698742  0.16777624     0.28700
C577        C  0.97322353  0.85562823  0.17947568    -0.25200
C578        C  0.95063375  0.83188908  0.14988165    -0.24500
C579        C  0.96177681  0.82999226  0.10774219     0.40100
C580        C  0.99525284  0.85156625  0.09599548    -0.26900
O581        O  0.02841814  0.89959919  0.19760656    -0.58800
H582        H  0.96513185  0.85726485  0.21199371     0.15800
O583        O  0.94012728  0.80749380  0.07768886    -0.60300
H584        H  0.00363945  0.85024070  0.06354847     0.14200
H585        H  0.10599004  0.99345341  0.06304732     0.46100
H586        H  0.02628381  0.91998583  0.19420906     0.41400
H587        H  0.92785543  0.81826766  0.06527086     0.44900
H588        H  0.06883029  0.86081018  0.17023192     0.36400
C589        C  0.07473962  0.88006793  0.62179634    -0.27900
C590        C  0.06799398  0.90610370  0.61238558     0.01700
C591        C  0.03628499  0.89808315  0.59572267     0.29800
C592        C  0.01048226  0.86449219  0.59452926    -0.19700
C593        C  0.01597341  0.83901019  0.61049617    -0.29100
C594        C  0.04881594  0.84649365  0.62084484     0.43900
C595        C  0.09168932  0.94071941  0.62733105     0.05000
O596        O  0.02977559  0.92314828  0.58369986    -0.57600
H597        H  0.98519933  0.85894920  0.58667654     0.18000
O598        O  0.05469309  0.82187860  0.63657874    -0.64300
H599        H  0.09915452  0.88592023  0.63421730     0.16400
C600        C  0.08196705  0.95564922  0.66005570     0.28700
C601        C  0.10418075  0.98834886  0.67424425    -0.25200
C602        C  0.13669614  0.00665758  0.65696325    -0.24500
C603        C  0.14682254  0.99108484  0.62519924     0.40100
C604        C  0.12439353  0.95830448  0.61088939    -0.26900
O605        O  0.05079377  0.93829160  0.67876346    -0.58800
H606        H  0.09579671  0.99937047  0.69891604     0.15800
O607        O  0.17853684  0.00748032  0.60792094    -0.60300
H608        H  0.13241201  0.94673513  0.58650394     0.14200
H609        H  0.05468229  0.80901736  0.61065790     0.46100
H610        H  0.05311884  0.92470292  0.70213707     0.41400
H611        H  0.17663465  0.01858569  0.58127547     0.44900
H612        H  0.01385454  0.92291719  0.60561560     0.36400
C613        C  0.23856303  0.11278722  0.97909868    -0.27900
C614        C  0.23249422  0.08735102  0.94883241     0.01700
C615        C  0.22864478  0.05661776  0.96362652     0.29800
C616        C  0.22955725  0.05115628  0.00798387    -0.19700
C617        C  0.23383254  0.07580984  0.03862825    -0.29100
C618        C  0.23914129  0.10718077  0.02377477     0.43900
C619        C  0.22700120  0.09154886  0.90241943     0.05000
O620        O  0.22253091  0.03114265  0.93509801    -0.57600
H621        H  0.22591108  0.02696898  0.01838590     0.18000
O622        O  0.24389821  0.13211801  0.05243430    -0.64300
H623        H  0.24191625  0.13672517  0.96808947     0.16400
C624        C  0.20172203  0.09870987  0.89020409     0.28700
C625        C  0.19417458  0.09905043  0.84637936    -0.25200
C626        C  0.21166877  0.09259440  0.81373678    -0.24500
C627        C  0.23759675  0.08618274  0.82598373     0.40100
C628        C  0.24496302  0.08557681  0.87005604    -0.26900
O629        O  0.18290195  0.10349461  0.92098870    -0.58800
H630        H  0.17419434  0.10415080  0.83810401     0.15800
O631        O  0.25568276  0.08015704  0.79542407    -0.60300
H632        H  0.26458506  0.08012859  0.87905948     0.14200
H633        H  0.22108623  0.12836127  0.05848799     0.46100
H634        H  0.19147118  0.12809892  0.92140544     0.41400
H635        H  0.27503094  0.10259079  0.78842109     0.44900
H636        H  0.19777780  0.01830693  0.93149022     0.36400
C637        C  0.23569329  0.12239129  0.37277899    -0.27900
C638        C  0.22931977  0.09732747  0.40358354     0.01700
C639        C  0.21913732  0.06446611  0.38973851     0.29800
C640        C  0.21497567  0.05678172  0.34555688    -0.19700
C641        C  0.22069127  0.08151509  0.31435304    -0.29100
C642        C  0.23154273  0.11472573  0.32829266     0.43900
C643        C  0.22929112  0.10434704  0.45023025     0.05000
O644        O  0.21084630  0.03918828  0.41939863    -0.57600
H645        H  0.20646035  0.03101812  0.33585061     0.18000
O646        O  0.23706132  0.13954713  0.29908559    -0.64300
H647        H  0.24302202  0.14769943  0.38338582     0.16400
C648        C  0.25262177  0.10342557  0.47907451     0.28700
C649        C  0.25009881  0.10763959  0.52378647    -0.25200
C650        C  0.22457410  0.11304731  0.53992385    -0.24500
C651        C  0.20092757  0.11332717  0.51072584     0.40100
C652        C  0.20350321  0.10906518  0.46634802    -0.26900
O653        O  0.27843748  0.09944231  0.46359405    -0.58800
H654        H  0.26848581  0.10738133  0.54565390     0.15800
O655        O  0.17427407  0.11625179  0.52541886    -0.60300
H656        H  0.18484815  0.10875791  0.44443379     0.14200
H657        H  0.21488041  0.13793154  0.29494359     0.46100
H658        H  0.27286556  0.07637519  0.47219077     0.41400
H659        H  0.18071761  0.14011681  0.52045124     0.44900
H660        H  0.22984083  0.03466544  0.41902733     0.36400
C661        C  0.06844930  0.13881291  0.65060554    -0.27900
C662        C  0.04248892  0.10806445  0.63462550     0.01700
C663        C  0.05057847  0.08784773  0.60851064     0.29800
C664        C  0.08418999  0.09604218  0.60435394    -0.19700
C665        C  0.10975153  0.12470918  0.62496837    -0.29100
C666        C  0.10196649  0.14747408  0.64529243     0.43900
C667        C  0.00768788  0.09622520  0.64938077     0.05000
O668        O  0.02573271  0.05979906  0.58799588    -0.57600
H669        H  0.09005026  0.07865118  0.58795902     0.18000
O670        O  0.12641934  0.17576297  0.66561653    -0.64300
H671        H  0.06274459  0.15496641  0.67024941     0.16400
C672        C  0.98852314  0.06451065  0.66944791     0.28700
C673        C  0.95672939  0.05499819  0.68619134    -0.25200
C674        C  0.94398935  0.07714725  0.68468881    -0.24500
C675        C  0.96353179  0.10916877  0.66546461     0.40100
C676        C  0.99491407  0.11830512  0.64788014    -0.26900
O677        O  0.00103443  0.04305025  0.67429191    -0.58800
H678        H  0.94225376  0.03044844  0.70108983     0.15800
O679        O  0.95231079  0.13187303  0.66369760    -0.60300
H680        H  0.00949812  0.14295791  0.63327646     0.14200
H681        H  0.13340508  0.19406786  0.64399659     0.46100
H682        H  0.01552523  0.05113074  0.70051007     0.41400
H683        H  0.94453029  0.13091148  0.63340254     0.44900
H684        H  0.02732706  0.04038984  0.59942328     0.36400
C685        C  0.12470618  0.81254027  0.83555570    -0.27900
C686        C  0.11889970  0.81413224  0.79099666     0.01700
C687        C  0.14710144  0.82932063  0.76313380     0.29800
C688        C  0.17965033  0.83958663  0.77933983    -0.19700
C689        C  0.18485895  0.83495427  0.82327168    -0.29100
C690        C  0.15703122  0.82268961  0.85166174     0.43900
C691        C  0.08333493  0.79985263  0.77480670     0.05000
O692        O  0.14313834  0.83461394  0.72017551    -0.57600
H693        H  0.20041478  0.84881882  0.75671312     0.18000
O694        O  0.16095475  0.81904167  0.89518665    -0.64300
H695        H  0.10377016  0.80179930  0.85796610     0.16400
C696        C  0.07042832  0.77707257  0.73948790     0.28700
C697        C  0.03687495  0.76421609  0.72554699    -0.25200
C698        C  0.01522112  0.77326836  0.74642915    -0.24500
C699        C  0.02782430  0.79468874  0.78322500     0.40100
C700        C  0.06129905  0.80775634  0.79669642    -0.26900
O701        O  0.08998287  0.76615642  0.71947241    -0.58800
H702        H  0.02812065  0.74776927  0.69745328     0.15800
O703        O  0.00820324  0.80446189  0.80540124    -0.60300
H704        H  0.07027065  0.82478669  0.82421824     0.14200
H705        H  0.15129788  0.79450007  0.89982982     0.46100
H706        H  0.09249880  0.77405770  0.68899150     0.41400
H707        H  0.99660799  0.78697259  0.82792911     0.44900
H708        H  0.15128743  0.82160699  0.70336659     0.36400
C709        C  0.19247543  0.89002890  0.24090394    -0.27900
C710        C  0.16670007  0.87636372  0.27238365     0.01700
C711        C  0.15475973  0.89716045  0.28880158     0.29800
C712        C  0.16796855  0.93024928  0.27380073    -0.19700
C713        C  0.19288012  0.94374184  0.24129529    -0.29100
C714        C  0.20541690  0.92326186  0.22528754     0.43900
C715        C  0.15246953  0.84076992  0.28842361     0.05000
O716        O  0.12909837  0.88500360  0.31844850    -0.57600
H717        H  0.15742794  0.94504540  0.28655428     0.18000
O718        O  0.22860420  0.93451759  0.19245183    -0.64300
H719        H  0.20239953  0.87475764  0.22796298     0.16400
C720        C  0.14190710  0.81331825  0.25959046     0.28700
C721        C  0.13139314  0.78079604  0.27566931    -0.25200
C722        C  0.13210134  0.77487230  0.32041030    -0.24500
C723        C  0.14006857  0.80171001  0.34928365     0.40100
C724        C  0.14986431  0.83410595  0.33337000    -0.26900
O725        O  0.14368816  0.81828168  0.21552751    -0.58800
H726        H  0.12665269  0.76097006  0.25268913     0.15800
O727        O  0.14159406  0.79720339  0.39311647    -0.60300
H728        H  0.15770651  0.85457141  0.35639679     0.14200
H729        H  0.25072782  0.94494638  0.20725361     0.46100
H730        H  0.12048255  0.81161980  0.20635326     0.41400
H731        H  0.16544925  0.80438259  0.39925239     0.44900
H732        H  0.10824503  0.87251488  0.30106177     0.36400
C733        C  0.23146193  0.80241876  0.62595505    -0.27900
C734        C  0.20445693  0.77128602  0.61328403     0.01700
C735        C  0.18288943  0.74916229  0.64536306     0.29800
C736        C  0.18952040  0.75768534  0.68952691    -0.19700
C737        C  0.21796297  0.78790947  0.70228182    -0.29100
C738        C  0.23830049  0.81083645  0.66986970     0.43900
C739        C  0.20144198  0.76107074  0.56700921     0.05000
O740        O  0.15604277  0.71864122  0.63392136    -0.57600
H741        H  0.17334776  0.73992212  0.71379600     0.18000
O742        O  0.26573481  0.84114968  0.68068246    -0.64300
H743        H  0.24830806  0.81967780  0.60171011     0.16400
C744        C  0.19746104  0.77994291  0.53386599     0.28700
C745        C  0.19803804  0.77155377  0.49012398    -0.25200
C746        C  0.20296803  0.74456434  0.47854396    -0.24500
C747        C  0.20648622  0.72544364  0.51213514     0.40100
C748        C  0.20577151  0.73384021  0.55571474    -0.26900
O749        O  0.19217677  0.80610909  0.54401324    -0.58800
H750        H  0.19457403  0.78627130  0.46525011     0.15800
O751        O  0.21133437  0.69885979  0.50298365    -0.60300
H752        H  0.20940223  0.71942810  0.58089742     0.14200
H753        H  0.25678242  0.85661535  0.68559923     0.46100
H754        H  0.21418021  0.82679369  0.53966866     0.41400
H755        H  0.18857841  0.67869382  0.50343278     0.44900
H756        H  0.13750934  0.72327811  0.62788458     0.36400
C757        C  0.23253061  0.76041367  0.14173897    -0.27900
C758        C  0.20602886  0.75673556  0.11498628     0.01700
C759        C  0.17537283  0.74939216  0.13411748     0.29800
C760        C  0.17112344  0.74467938  0.17896799    -0.19700
C761        C  0.19726346  0.74749467  0.20583468    -0.29100
C762        C  0.22843859  0.75612622  0.18688694     0.43900
C763        C  0.21048499  0.76031906  0.06718633     0.05000
O764        O  0.14927236  0.74650294  0.10919172    -0.57600
H765        H  0.14698265  0.73837188  0.19268341     0.18000
O766        O  0.25436554  0.75846640  0.21166281    -0.64300
H767        H  0.25625310  0.76585766  0.12744215     0.16400
C768        C  0.23683321  0.78979691  0.04906836     0.28700
C769        C  0.24184280  0.79216838  0.00415652    -0.25200
C770        C  0.22075338  0.76550274  0.97647864    -0.24500
C771        C  0.19354797  0.73647167  0.99427258     0.40100
C772        C  0.18868969  0.73392876  0.03944623    -0.26900
O773        O  0.25729584  0.81672564  0.07499043    -0.58800
H774        H  0.26259470  0.81493290  0.99086697     0.15800
O775        O  0.17302297  0.70968093  0.96825027    -0.60300
H776        H  0.16837539  0.71097934  0.05296655     0.14200
H777        H  0.26868907  0.78278985  0.21811040     0.46100
H778        H  0.27887131  0.81671995  0.07665218     0.41400
H779        H  0.15384162  0.71301740  0.96093775     0.44900
H780        H  0.15295203  0.76969345  0.10694040     0.36400
C781        C  0.20351575  0.54641945  0.33062644    -0.27900
C782        C  0.20647965  0.55567641  0.28659574     0.01700
C783        C  0.22577000  0.54769182  0.25872306     0.29800
C784        C  0.23960896  0.52853189  0.27434730    -0.19700
C785        C  0.23468262  0.51755737  0.31761895    -0.29100
C786        C  0.21708470  0.52712626  0.34602315     0.43900
C787        C  0.18851215  0.57295622  0.27094996     0.05000
O788        O  0.22990150  0.55708153  0.21588291    -0.57600
H789        H  0.25222736  0.52042262  0.25189969     0.18000
O790        O  0.21141965  0.51614594  0.38824771    -0.64300
H791        H  0.18965674  0.55329111  0.35290282     0.16400
C792        C  0.15472724  0.56064315  0.28288846     0.28700
C793        C  0.14138864  0.58208251  0.28193653    -0.25200
C794        C  0.16131262  0.61546989  0.26862678    -0.24500
C795        C  0.19219817  0.62539558  0.24812821     0.40100
C796        C  0.20614690  0.60435783  0.25030572    -0.26900
O797        O  0.13602637  0.52922510  0.30071253    -0.58800
H798        H  0.11743801  0.57417065  0.29751836     0.15800
O799        O  0.21144686  0.65768564  0.23320045    -0.60300
H800        H  0.23189076  0.61400460  0.24005367     0.14200
H801        H  0.23217099  0.53191881  0.40418971     0.46100
H802        H  0.12946627  0.51336638  0.27587192     0.41400
H803        H  0.20063381  0.65853710  0.20570673     0.44900
H804        H  0.21143159  0.53779799  0.20021821     0.36400
C805        C  0.06769333  0.21905853  0.30100214    -0.27900
C806        C  0.08825689  0.24962130  0.27956218     0.01700
C807        C  0.07370329  0.25929830  0.24594872     0.29800
C808        C  0.03999166  0.23810104  0.23329677    -0.19700
C809        C  0.01993271  0.20687713  0.25356680    -0.29100
C810        C  0.03404927  0.19795383  0.28847395     0.43900
C811        C  0.12458995  0.27126010  0.29250902     0.05000
O812        O  0.09240540  0.28920522  0.22454773    -0.57600
H813        H  0.03008792  0.24538088  0.20601538     0.18000
O814        O  0.01549745  0.16786901  0.30959922    -0.64300
H815        H  0.07801567  0.21091580  0.32686667     0.16400
C816        C  0.13414747  0.28085762  0.33618722     0.28700
C817        C  0.16749162  0.30510024  0.34660559    -0.25200
C818        C  0.19202803  0.32051400  0.31415250    -0.24500
C819        C  0.18330570  0.30824636  0.27126705     0.40100
C820        C  0.14998973  0.28402025  0.26074961    -0.26900
O821        O  0.11056793  0.26896604  0.36858645    -0.58800
H822        H  0.17316414  0.31483205  0.37950331     0.15800
O823        O  0.20596066  0.32333109  0.23825108    -0.60300
H824        H  0.14362458  0.27654131  0.22711757     0.14200
H825        H  0.00746627  0.17348812  0.33649185     0.46100
H826        H  0.10249854  0.28538625  0.37060311     0.41400
H827        H  0.21970094  0.31215650  0.23814697     0.44900
H828        H  0.08883745  0.30582283  0.24090532     0.36400
C829        C  0.14088102  0.21216493  0.78337440    -0.27900
C830        C  0.15318034  0.24400333  0.76421530     0.01700
C831        C  0.17963619  0.25444729  0.73378710     0.29800
C832        C  0.19266227  0.23312829  0.72267859    -0.19700
C833        C  0.17956007  0.20081448  0.74089469    -0.29100
C834        C  0.15340469  0.19070820  0.77183210     0.43900
C835        C  0.13970880  0.26664030  0.77865497     0.05000
O836        O  0.19378151  0.28596355  0.71578927    -0.57600
H837        H  0.21222133  0.24147517  0.69837652     0.18000
O838        O  0.13976350  0.15970809  0.79126759    -0.64300
H839        H  0.12089295  0.20351264  0.80711933     0.16400
C840        C  0.12907191  0.28315558  0.74907246     0.28700
C841        C  0.12062824  0.30723812  0.76393845    -0.25200
C842        C  0.12210055  0.31517403  0.80841810    -0.24500
C843        C  0.12934151  0.29608613  0.83809234     0.40100
C844        C  0.13803224  0.27234622  0.82325849    -0.26900
O845        O  0.12785287  0.27683864  0.70538239    -0.58800
H846        H  0.11558299  0.32164681  0.74024247     0.15800
O847        O  0.13089167  0.30259001  0.88178918    -0.60300
H848        H  0.14530258  0.25963593  0.84689735     0.14200
H849        H  0.11804603  0.14556565  0.77620551     0.46100
H850        H  0.10598921  0.25606108  0.70059326     0.41400
H851        H  0.10885915  0.28528914  0.89343129     0.44900
H852        H  0.18732065  0.28227496  0.68467336     0.36400
C853        C  0.23434298  0.42067751  0.02365532    -0.27900
C854        C  0.20754272  0.41290509  0.05230131     0.01700
C855        C  0.17641718  0.40633225  0.03491839     0.29800
C856        C  0.17303756  0.40931371  0.99025889    -0.19700
C857        C  0.19998014  0.41766894  0.96194268    -0.29100
C858        C  0.23053248  0.42252130  0.97870754     0.43900
C859        C  0.21260175  0.41293493  0.10013135     0.05000
O860        O  0.14923996  0.39745175  0.06132447    -0.57600
H861        H  0.14930006  0.40541699  0.97764655     0.18000
O862        O  0.25753112  0.43162743  0.95191032    -0.64300
H863        H  0.25868015  0.42646762  0.03621397     0.16400
C864        C  0.22808480  0.39593432  0.11843768     0.28700
C865        C  0.23340470  0.39709789  0.16331591    -0.25200
C866        C  0.22363215  0.41515582  0.19106480    -0.24500
C867        C  0.20767184  0.43178036  0.17281675     0.40100
C868        C  0.20241979  0.43067830  0.12779526    -0.26900
O869        O  0.23697839  0.37704458  0.09290813    -0.58800
H870        H  0.24533511  0.38367507  0.17633198     0.15800
O871        O  0.19723444  0.44931860  0.19844483    -0.60300
H872        H  0.19085615  0.44432154  0.11437697     0.14200
H873        H  0.25586320  0.41011492  0.94260084     0.46100
H874        H  0.26188427  0.38947389  0.09243767     0.41400
H875        H  0.21599289  0.47292020  0.19800438     0.44900
H876        H  0.13881780  0.37276470  0.06519056     0.36400
C877        C  0.20084468  0.38986896  0.62766726    -0.27900
C878        C  0.18600721  0.40192417  0.59803618     0.01700
C879        C  0.16359480  0.41201052  0.61336341     0.29800
C880        C  0.15676318  0.41062193  0.65771564    -0.19700
C881        C  0.17225352  0.39951776  0.68793185    -0.29100
C882        C  0.19395376  0.38837400  0.67229896     0.43900
C883        C  0.19623163  0.40698870  0.55182010     0.05000
O884        O  0.14924252  0.42457229  0.58539951    -0.57600
H885        H  0.13988646  0.41927581  0.66847652     0.18000
O886        O  0.20966277  0.37733801  0.70027559    -0.64300
H887        H  0.21833947  0.38221790  0.61618715     0.16400
C888        C  0.22939626  0.43059959  0.54048430     0.28700
C889        C  0.23839399  0.43745254  0.49682549    -0.25200
C890        C  0.21472501  0.42102774  0.46349673    -0.24500
C891        C  0.18154825  0.39682928  0.47486697     0.40100
C892        C  0.17244535  0.39027792  0.51881414    -0.26900
O893        O  0.25309276  0.44770377  0.57194351    -0.58800
H894        H  0.26416144  0.45582212  0.48910736     0.15800
O895        O  0.15756205  0.38038208  0.44352662    -0.60300
H896        H  0.14671095  0.37227917  0.52720899     0.14200
H897        H  0.19416199  0.35275351  0.70298699     0.46100
H898        H  0.25061827  0.46744565  0.57929347     0.41400
H899        H  0.15763820  0.35906771  0.43814576     0.44900
H900        H  0.16555378  0.44901714  0.58342652     0.36400
C901        C  0.20678697  0.57617412  0.75396172    -0.27900
C902        C  0.18316832  0.58416346  0.77029509     0.01700
C903        C  0.15030270  0.55824958  0.77926499     0.29800
C904        C  0.14271158  0.52467494  0.77722441    -0.19700
C905        C  0.16791637  0.51702592  0.76702078    -0.29100
C906        C  0.19922527  0.54271322  0.75189815     0.43900
C907        C  0.19444188  0.61884674  0.78454151     0.05000
O908        O  0.12654746  0.56559580  0.79425023    -0.57600
H909        H  0.11851641  0.50516916  0.78889402     0.18000
O910        O  0.22388371  0.53568662  0.74004984    -0.64300
H911        H  0.23194832  0.59602213  0.74613384     0.16400
C912        C  0.21741545  0.63298694  0.81915171     0.28700
C913        C  0.22641940  0.66510060  0.83450701    -0.25200
C914        C  0.21298841  0.68368141  0.81548921    -0.24500
C915        C  0.19049114  0.66957481  0.78002147     0.40100
C916        C  0.18113274  0.63723936  0.76523387    -0.26900
O917        O  0.23002188  0.61493841  0.83939414    -0.58800
H918        H  0.24380515  0.67533762  0.86153194     0.15800
O919        O  0.17747042  0.68706576  0.75937372    -0.60300
H920        H  0.16351110  0.62650476  0.73850974     0.14200
H921        H  0.22073768  0.53115293  0.70840352     0.46100
H922        H  0.25242679  0.62291190  0.82621894     0.41400
H923        H  0.19339011  0.69923749  0.73546184     0.44900
H924        H  0.12851559  0.56599366  0.82637037     0.36400
C925        C  0.40446393  0.73591798  0.80280025    -0.27900
C926        C  0.41726392  0.76551828  0.77807630     0.01700
C927        C  0.45117547  0.78212414  0.76577358     0.29800
C928        C  0.47197579  0.76954189  0.77899681    -0.19700
C929        C  0.45948901  0.74031588  0.80474654    -0.29100
C930        C  0.42518617  0.72328137  0.81616111     0.43900
C931        C  0.39548691  0.78013645  0.76916972     0.05000
O932        O  0.46431783  0.81094613  0.74138460    -0.57600
H933        H  0.49811932  0.78303922  0.76935701     0.18000
O934        O  0.41154968  0.69435689  0.84040436    -0.64300
H935        H  0.37845165  0.72309761  0.81305700     0.16400
C936        C  0.36392770  0.76069560  0.74931843     0.28700
C937        C  0.33998629  0.77100083  0.75198037    -0.25200
C938        C  0.34706007  0.80041016  0.77465311    -0.24500
C939        C  0.37982989  0.82178446  0.79008227     0.40100
C940        C  0.40391708  0.81159982  0.78711096    -0.26900
O941        O  0.35576955  0.73075583  0.72936260    -0.58800
H942        H  0.31477394  0.75429892  0.74010816     0.15800
O943        O  0.38736986  0.85058596  0.81261205    -0.60300
H944        H  0.42814224  0.82681383  0.80252788     0.14200
H945        H  0.41294459  0.70186524  0.87094460     0.46100
H946        H  0.33985547  0.71292039  0.74925553     0.41400
H947        H  0.38326447  0.84379601  0.84358975     0.44900
H948        H  0.46229819  0.80329167  0.71082800     0.36400
C949        C  0.67322139  0.81426355  0.76008121    -0.27900
C950        C  0.68558904  0.84088043  0.79043120     0.01700
C951        C  0.67598809  0.83282402  0.83432219     0.29800
C952        C  0.65374270  0.79936162  0.84662006    -0.19700
C953        C  0.63991198  0.77298021  0.81600757    -0.29100
C954        C  0.65074823  0.78073272  0.77245305     0.43900
C955        C  0.70719798  0.87688346  0.77582182     0.05000
O956        O  0.68533581  0.85788881  0.86473105    -0.57600
H957        H  0.64516188  0.79447205  0.87999746     0.18000
O958        O  0.63699284  0.75649073  0.74080519    -0.64300
H959        H  0.68016426  0.81964054  0.72620053     0.16400
C960        C  0.73736196  0.89909388  0.79748458     0.28700
C961        C  0.75683797  0.93265365  0.78390120    -0.25200
C962        C  0.74805754  0.94513464  0.74724096    -0.24500
C963        C  0.71797886  0.92287100  0.72521419     0.40100
C964        C  0.69787471  0.88933307  0.73964517    -0.26900
O965        O  0.74908193  0.88794053  0.83087787    -0.58800
H966        H  0.78010316  0.94848403  0.80109639     0.15800
O967        O  0.70852415  0.93308687  0.68860435    -0.60300
H968        H  0.67493123  0.87287643  0.72219327     0.14200
H969        H  0.65073395  0.74530359  0.74092876     0.46100
H970        H  0.76178955  0.87829286  0.81669250     0.41400
H971        H  0.69198800  0.93951297  0.69871972     0.44900
H972        H  0.69887596  0.85390175  0.88657033     0.36400
C973        C  0.40672427  0.54570089  0.77600551    -0.27900
C974        C  0.38229794  0.55214603  0.75824624     0.01700
C975        C  0.39245497  0.58271669  0.73649803     0.29800
C976        C  0.42600740  0.60811653  0.73823089    -0.19700
C977        C  0.44958075  0.60333317  0.76152156    -0.29100
C978        C  0.44041628  0.57113604  0.77757200     0.43900
C979        C  0.34680243  0.53050141  0.77073430     0.05000
O980        O  0.36920952  0.58941426  0.71802003    -0.57600
H981        H  0.43282723  0.63284839  0.72581231     0.18000
O982        O  0.46274057  0.56595451  0.80132420    -0.64300
H983        H  0.39921630  0.52230573  0.79297382     0.16400
C984        C  0.32926405  0.49591395  0.76145367     0.28700
C985        C  0.29656743  0.47586123  0.77711229    -0.25200
C986        C  0.28109463  0.48979438  0.80275743    -0.24500
C987        C  0.29871275  0.52464831  0.81146882     0.40100
C988        C  0.33127776  0.54458140  0.79566927    -0.26900
O989        O  0.34359944  0.48172782  0.73629024    -0.58800
H990        H  0.28342256  0.44924739  0.76935652     0.15800
O991        O  0.28454694  0.53958981  0.83548411    -0.60300
H992        H  0.34476863  0.57117354  0.80361676     0.14200
H993        H  0.47655019  0.56240535  0.77952169     0.46100
H994        H  0.35070648  0.46984167  0.75693276     0.41400
H995        H  0.27242707  0.54588964  0.81413863     0.44900
H996        H  0.36427168  0.57832670  0.68914424     0.36400
C997        C  0.40365439  0.63454516  0.29556319    -0.27900
C998        C  0.41900933  0.61904660  0.27299555     0.01700
C999        C  0.45361472  0.63742940  0.26467596     0.29800
C1000       C  0.47286054  0.66965916  0.28216064    -0.19700
C1001       C  0.45805806  0.68418188  0.30778755    -0.29100
C1002       C  0.42297170  0.66709163  0.31273427     0.43900
C1003       C  0.39973443  0.58240688  0.26446218     0.05000
O1004       O  0.46869843  0.62385506  0.23969841    -0.57600
H1005       H  0.49968901  0.68309902  0.27630181     0.18000
O1006       O  0.40755606  0.68121886  0.33581025    -0.64300
H1007       H  0.37691543  0.62067219  0.30197157     0.16400
C1008       C  0.40907618  0.56087977  0.28531759     0.28700
C1009       C  0.38690477  0.52624534  0.28599932    -0.25200
C1010       C  0.35495210  0.51271187  0.26732173    -0.24500
C1011       C  0.34699823  0.53361912  0.24256220     0.40100
C1012       C  0.36935513  0.56838768  0.24134740    -0.26900
O1013       O  0.43805268  0.57367999  0.30939256    -0.58800
H1014       H  0.39289279  0.51054626  0.30619773     0.15800
O1015       O  0.31582579  0.52095270  0.22408227    -0.60300
H1016       H  0.36188070  0.58464419  0.22519319     0.14200
H1017       H  0.40644579  0.67339735  0.36611072     0.46100
H1018       H  0.43198324  0.57806871  0.33862314     0.41400
H1019       H  0.30111773  0.52020627  0.24801061     0.44900
H1020       H  0.48458549  0.62148331  0.25925682     0.36400
C1021       C  0.70317188  0.77547488  0.24402728    -0.27900
C1022       C  0.71555326  0.80280428  0.27339484     0.01700
C1023       C  0.74821768  0.81527891  0.29010801     0.29800
C1024       C  0.76847139  0.80229396  0.27538296    -0.19700
C1025       C  0.75702058  0.77655564  0.24377602    -0.29100
C1026       C  0.72345112  0.76223311  0.22951905     0.43900
C1027       C  0.69452888  0.81833083  0.28598017     0.05000
O1028       O  0.76129187  0.84133896  0.31939438    -0.57600
H1029       H  0.79406312  0.81371400  0.28726449     0.18000
O1030       O  0.71091888  0.73703525  0.19904025    -0.64300
H1031       H  0.67780541  0.76472734  0.23159323     0.16400
C1032       C  0.67973441  0.82918281  0.25431099     0.28700
C1033       C  0.65687969  0.83981443  0.26658805    -0.25200
C1034       C  0.64757640  0.83915202  0.31028879    -0.24500
C1035       C  0.66514614  0.83181129  0.34211490     0.40100
C1036       C  0.68819745  0.82145252  0.32998021    -0.26900
O1037       O  0.68672433  0.82856046  0.21110503    -0.58800
H1038       H  0.64325212  0.84450500  0.24132428     0.15800
O1039       O  0.65644427  0.83010081  0.38500417    -0.60300
H1040       H  0.69938557  0.81360068  0.35507057     0.14200
H1041       H  0.70222890  0.71589822  0.21588726     0.46100
H1042       H  0.66646339  0.80895953  0.19868176     0.41400
H1043       H  0.66934713  0.85358057  0.39581438     0.44900
H1044       H  0.77165674  0.86208931  0.30153001     0.36400
C1045       C  0.57926854  0.75341147  0.52377459    -0.27900
C1046       C  0.55882331  0.75610123  0.55562272     0.01700
C1047       C  0.53277187  0.76185652  0.54266053     0.29800
C1048       C  0.52727578  0.76467457  0.49859486    -0.19700
C1049       C  0.54738344  0.76170233  0.46635481    -0.29100
C1050       C  0.57392980  0.75646709  0.47942221     0.43900
C1051       C  0.56254351  0.74995121  0.60206350     0.05000
O1052       O  0.51192250  0.76389645  0.57288226    -0.57600
H1053       H  0.50689441  0.76900650  0.48971665     0.18000
O1054       O  0.59394252  0.75297798  0.44926431    -0.64300
H1055       H  0.59919106  0.74857529  0.53334984     0.16400
C1056       C  0.55475144  0.71766770  0.61581914     0.28700
C1057       C  0.55375764  0.71064033  0.66012281    -0.25200
C1058       C  0.56073948  0.73552383  0.69184927    -0.24500
C1059       C  0.57003995  0.76838947  0.67787857     0.40100
C1060       C  0.57069041  0.77530599  0.63327244    -0.26900
O1061       O  0.54587983  0.69217057  0.58624367    -0.58800
H1062       H  0.54667484  0.68517473  0.66953298     0.15800
O1063       O  0.57811924  0.79380774  0.70729778    -0.60300
H1064       H  0.57684804  0.80035106  0.62300241     0.14200
H1065       H  0.61388110  0.77574402  0.44635757     0.46100
H1066       H  0.56674279  0.69135028  0.58081215     0.41400
H1067       H  0.55696818  0.79419667  0.71218353     0.44900
H1068       H  0.49304951  0.74053904  0.57618589     0.36400
C1069       C  0.55821188  0.76915367  0.02648918    -0.27900
C1070       C  0.53918929  0.74377545  0.05682990     0.01700
C1071       C  0.51522087  0.71168242  0.04154682     0.29800
C1072       C  0.51062895  0.70547347  0.99680929    -0.19700
C1073       C  0.52957504  0.73083316  0.96628257    -0.29100
C1074       C  0.55351185  0.76299046  0.98167618     0.43900
C1075       C  0.54267425  0.75208955  0.10398287     0.05000
O1076       O  0.49473482  0.68683866  0.06999290    -0.57600
H1077       H  0.49179582  0.68057438  0.98609864     0.18000
O1078       O  0.57294619  0.78843827  0.95342353    -0.64300
H1079       H  0.57673113  0.79404054  0.03766156     0.16400
C1080       C  0.54781355  0.73263567  0.13541602     0.28700
C1081       C  0.54965983  0.74086117  0.17968134    -0.25200
C1082       C  0.54745132  0.76899507  0.19321445    -0.24500
C1083       C  0.54276492  0.78861267  0.16159065     0.40100
C1084       C  0.54043149  0.78009293  0.11767111    -0.26900
O1085       O  0.55161676  0.70591867  0.12326622    -0.58800
H1086       H  0.55347266  0.72559583  0.20337676     0.15800
O1087       O  0.53975379  0.81591191  0.17319878    -0.60300
H1088       H  0.53625401  0.79521866  0.09413655     0.14200
H1089       H  0.56054250  0.80075639  0.94871800     0.46100
H1090       H  0.57585676  0.71576915  0.11677697     0.41400
H1091       H  0.51547431  0.80673931  0.17884394     0.44900
H1092       H  0.50100147  0.66908806  0.06736838     0.36400
C1093       C  0.39467293  0.75276404  0.25521993    -0.27900
C1094       C  0.38234805  0.77365581  0.26948566     0.01700
C1095       C  0.40478985  0.80849199  0.27400374     0.29800
C1096       C  0.43939352  0.82091411  0.27165462    -0.19700
C1097       C  0.45178689  0.79897014  0.26406493    -0.29100
C1098       C  0.42932023  0.76540347  0.25193711     0.43900
C1099       C  0.34810037  0.75848569  0.28803959     0.05000
O1100       O  0.39334029  0.82984617  0.28598454    -0.57600
H1101       H  0.45640203  0.84669458  0.28140815     0.18000
O1102       O  0.44088212  0.74338546  0.24456666    -0.64300
H1103       H  0.37780094  0.72596719  0.25133616     0.16400
C1104       C  0.31921881  0.73677314  0.26394575     0.28700
C1105       C  0.28738295  0.72381780  0.28293052    -0.25200
C1106       C  0.28406171  0.73207762  0.32586337    -0.24500
C1107       C  0.31294494  0.75256837  0.35043761     0.40100
C1108       C  0.34463386  0.76541822  0.33163445    -0.26900
O1109       O  0.32175772  0.72985262  0.22121454    -0.58800
H1110       H  0.26524152  0.70875319  0.26342137     0.15800
O1111       O  0.31039323  0.76087268  0.39252937    -0.60300
H1112       H  0.36667751  0.78124964  0.35106406     0.14200
H1113       H  0.44972574  0.74806830  0.21449256     0.46100
H1114       H  0.31816780  0.70663998  0.22105870     0.41400
H1115       H  0.30856205  0.74198326  0.41028142     0.44900
H1116       H  0.38423616  0.83404397  0.25895939     0.36400
C1117       C  0.85528376  0.59296834  0.07775648    -0.27900
C1118       C  0.83454677  0.58288540  0.11478905     0.01700
C1119       C  0.82705025  0.55210692  0.13450283     0.29800
C1120       C  0.83930811  0.53189112  0.11668247    -0.19700
C1121       C  0.85938966  0.54144621  0.07890020    -0.29100
C1122       C  0.86756609  0.57274532  0.05988664     0.43900
C1123       C  0.82099764  0.60466588  0.13221650     0.05000
O1124       O  0.80576134  0.54036522  0.16946725    -0.57600
H1125       H  0.83179904  0.50782700  0.13180095     0.18000
O1126       O  0.88708237  0.58372284  0.02330143    -0.64300
H1127       H  0.86181011  0.61666534  0.06223472     0.16400
C1128       C  0.82640714  0.61598208  0.17571822     0.28700
C1129       C  0.81640988  0.63884007  0.19014786    -0.25200
C1130       C  0.80150118  0.65191626  0.16186274    -0.24500
C1131       C  0.79419366  0.63902365  0.11903922     0.40100
C1132       C  0.80405132  0.61590589  0.10459650    -0.26900
O1133       O  0.84364493  0.60680705  0.20380619    -0.58800
H1134       H  0.82290354  0.64850199  0.22300077     0.15800
O1135       O  0.78032149  0.65112406  0.08971320    -0.60300
H1136       H  0.79940165  0.60755076  0.07108795     0.14200
H1137       H  0.87100245  0.57697088  0.99873166     0.46100
H1138       H  0.86761863  0.62407474  0.20013551     0.41400
H1139       H  0.75572370  0.63685593  0.09353202     0.44900
H1140       H  0.81959209  0.54012372  0.19408716     0.36400
C1141       C  0.02649700  0.48939882  0.99547147    -0.27900
C1142       C  0.03330229  0.49145167  0.95066718     0.01700
C1143       C  0.01833494  0.50528578  0.92361393     0.29800
C1144       C  0.99447447  0.51310975  0.94051507    -0.19700
C1145       C  0.98486840  0.50735549  0.98445681    -0.29100
C1146       C  0.00261361  0.49714738  0.01225769     0.43900
C1147       C  0.05369807  0.47671369  0.93234127     0.05000
O1148       O  0.02516231  0.50919966  0.87998700    -0.57600
H1149       H  0.98058347  0.51987316  0.91809463     0.18000
O1150       O  0.99386485  0.49088097  0.05525328    -0.64300
H1151       H  0.03756771  0.47903526  0.01722589     0.16400
C1152       C  0.08513621  0.48460622  0.95007744     0.28700
C1153       C  0.10369079  0.47059848  0.93223052    -0.25200
C1154       C  0.09156645  0.44804605  0.89677617    -0.24500
C1155       C  0.05969894  0.43933259  0.87984225     0.40100
C1156       C  0.04116920  0.45356645  0.89748837    -0.26900
O1157       O  0.09900096  0.50772402  0.98307182    -0.58800
H1158       H  0.12839347  0.47837099  0.94543008     0.15800
O1159       O  0.04744248  0.41891645  0.84404005    -0.60300
H1160       H  0.01688763  0.44661353  0.88356039     0.14200
H1161       H  0.97824265  0.46627373  0.05707811     0.46100
H1162       H  0.09805545  0.49456667  0.00913139     0.41400
H1163       H  0.03422540  0.39576696  0.85576961     0.44900
H1164       H  0.04400314  0.53258183  0.87678678     0.36400
C1165       C  0.84805175  0.22226434  0.57906458    -0.27900
C1166       C  0.82189251  0.21008608  0.60999119     0.01700
C1167       C  0.81054205  0.23201637  0.62391198     0.29800
C1168       C  0.82421691  0.26450160  0.60625095    -0.19700
C1169       C  0.84953685  0.27642136  0.57420125    -0.29100
C1170       C  0.86183791  0.25499546  0.56133898     0.43900
C1171       C  0.80694354  0.17488659  0.62800234     0.05000
O1172       O  0.78519942  0.22160277  0.65383992    -0.57600
H1173       H  0.81398577  0.28015022  0.61676317     0.18000
O1174       O  0.88573422  0.26482079  0.52952322    -0.64300
H1175       H  0.85772180  0.20621225  0.56829758     0.16400
C1176       C  0.79494490  0.14640923  0.60061842     0.28700
C1177       C  0.78483896  0.11428450  0.61815649    -0.25200
C1178       C  0.78748499  0.10986511  0.66291478    -0.24500
C1179       C  0.79630816  0.13771188  0.69054145     0.40100
C1180       C  0.80569186  0.16965989  0.67318048    -0.26900
O1181       O  0.79382609  0.14985799  0.55648466    -0.58800
H1182       H  0.77887030  0.09360738  0.59607245     0.15800
O1183       O  0.79917605  0.13460586  0.73446807    -0.60300
H1184       H  0.81435907  0.19089483  0.69512351     0.14200
H1185       H  0.90753521  0.27654517  0.54509881     0.46100
H1186       H  0.81309432  0.14824881  0.54478616     0.41400
H1187       H  0.82342814  0.14325350  0.73985641     0.44900
H1188       H  0.76410534  0.20969888  0.63676098     0.36400
C1189       C  0.01795851  0.47986479  0.43397890    -0.27900
C1190       C  0.02969197  0.50841819  0.46117896     0.01700
C1191       C  0.01866594  0.50306254  0.50478582     0.29800
C1192       C  0.99543864  0.47053527  0.51944445    -0.19700
C1193       C  0.98156025  0.44240479  0.49141348    -0.29100
C1194       C  0.99426276  0.44727640  0.44864886     0.43900
C1195       C  0.05131719  0.54356015  0.44311025     0.05000
O1196       O  0.02731575  0.52987151  0.53210458    -0.57600
H1197       H  0.98589908  0.46792011  0.55224036     0.18000
O1198       O  0.98136726  0.42113420  0.41952933    -0.64300
H1199       H  0.02616464  0.48301113  0.40048726     0.16400
C1200       C  0.08028602  0.56824710  0.46499910     0.28700
C1201       C  0.09927877  0.60096288  0.44798414    -0.25200
C1202       C  0.09113642  0.61020719  0.40797464    -0.24500
C1203       C  0.06238816  0.58542365  0.38575392     0.40100
C1204       C  0.04284779  0.55279763  0.40335784    -0.26900
O1205       O  0.09134086  0.56043770  0.50224563    -0.58800
H1206       H  0.12158573  0.61881082  0.46555374     0.15800
O1207       O  0.05400907  0.59208917  0.34568521    -0.60300
H1208       H  0.02093708  0.53449493  0.38554280     0.14200
H1209       H  0.99443800  0.40950875  0.42424189     0.46100
H1210       H  0.10447426  0.54985385  0.49230206     0.41400
H1211       H  0.03663621  0.59844267  0.35137572     0.44900
H1212       H  0.03989547  0.52701219  0.55637998     0.36400
C1213       C  0.86772848  0.40134515  0.80678362    -0.27900
C1214       C  0.88895010  0.42790424  0.77915466     0.01700
C1215       C  0.91124974  0.45951402  0.79727711     0.29800
C1216       C  0.91123132  0.46458522  0.84203788    -0.19700
C1217       C  0.88938349  0.43834510  0.86968113    -0.29100
C1218       C  0.86783060  0.40633933  0.85171782     0.43900
C1219       C  0.88654387  0.42279323  0.73141796     0.05000
O1220       O  0.93293115  0.48574166  0.77141526    -0.57600
H1221       H  0.92830334  0.48931962  0.85512972     0.18000
O1222       O  0.84596106  0.38009322  0.87739529    -0.64300
H1223       H  0.85019217  0.37691499  0.79331566     0.16400
C1224       C  0.88938059  0.39634932  0.71251196     0.28700
C1225       C  0.88464183  0.39054606  0.66777194    -0.25200
C1226       C  0.87740471  0.41103668  0.64119112    -0.24500
C1227       C  0.87574078  0.43820715  0.65968934     0.40100
C1228       C  0.88001206  0.44376819  0.70462063    -0.26900
O1229       O  0.89760702  0.37664028  0.73738424    -0.58800
H1230       H  0.88647531  0.36979991  0.65374421     0.15800
O1231       O  0.86775209  0.45799787  0.63469455    -0.60300
H1232       H  0.87734111  0.46397572  0.71876563     0.14200
H1233       H  0.82565870  0.38241489  0.87961438     0.46100
H1234       H  0.87662119  0.35462488  0.73985681     0.41400
H1235       H  0.88960887  0.47685863  0.62484748     0.44900
H1236       H  0.95375381  0.48427164  0.77051471     0.36400
C1237       C  0.91614927  0.41959384  0.19958467    -0.27900
C1238       C  0.89988203  0.42846992  0.23120198     0.01700
C1239       C  0.87729738  0.43901475  0.21803109     0.29800
C1240       C  0.87085551  0.44019303  0.17390029    -0.19700
C1241       C  0.88664942  0.43089442  0.14201763    -0.29100
C1242       C  0.90996809  0.42110592  0.15516138     0.43900
C1243       C  0.90268266  0.42222405  0.27774620     0.05000
O1244       O  0.86045923  0.44707525  0.24819588    -0.57600
H1245       H  0.85309816  0.44815247  0.16462931     0.18000
O1246       O  0.92529136  0.41110335  0.12515270    -0.64300
H1247       H  0.93304931  0.41071106  0.20946177     0.16400
C1248       C  0.88726706  0.38899368  0.29289440     0.28700
C1249       C  0.88661960  0.38264641  0.33724577    -0.25200
C1250       C  0.90091064  0.40908834  0.36780485    -0.24500
C1251       C  0.91693345  0.44259130  0.35249684     0.40100
C1252       C  0.91764278  0.44892944  0.30766661    -0.26900
O1253       O  0.87169020  0.36241269  0.26457652    -0.58800
H1254       H  0.87397114  0.35661523  0.34765738     0.15800
O1255       O  0.93198346  0.46923365  0.38075965    -0.60300
H1256       H  0.92938933  0.47468494  0.29625658     0.14200
H1257       H  0.94825460  0.43061382  0.12186030     0.46100
H1258       H  0.84835009  0.35811097  0.26188748     0.41400
H1259       H  0.91456743  0.47536033  0.38737179     0.44900
H1260       H  0.83991743  0.42551028  0.25509403     0.36400
C1261       C  0.81489110  0.61468254  0.60207337    -0.27900
C1262       C  0.78664573  0.60308123  0.62922300     0.01700
C1263       C  0.79194191  0.61229231  0.67352008     0.29800
C1264       C  0.82431327  0.63538310  0.68869125    -0.19700
C1265       C  0.85196027  0.64998401  0.66031979    -0.29100
C1266       C  0.84729602  0.63761665  0.61741267     0.43900
C1267       C  0.75184659  0.58295532  0.61078099     0.05000
O1268       O  0.76529351  0.60127364  0.70147809    -0.57600
H1269       H  0.82703568  0.64513229  0.72145032     0.18000
O1270       O  0.87332724  0.65164509  0.58835813    -0.64300
H1271       H  0.81157936  0.60735871  0.56816107     0.16400
C1272       C  0.74098084  0.59476970  0.57528190     0.28700
C1273       C  0.70855280  0.57485554  0.55751904    -0.25200
C1274       C  0.68634972  0.54290398  0.57458451    -0.24500
C1275       C  0.69685498  0.53180521  0.61119994     0.40100
C1276       C  0.72905339  0.55176140  0.62901607    -0.26900
O1277       O  0.76208222  0.62556373  0.55720002    -0.58800
H1278       H  0.70142434  0.58371107  0.52901657     0.15800
O1279       O  0.67578725  0.50111489  0.62966793    -0.60300
H1280       H  0.73659488  0.54225950  0.65647579     0.14200
H1281       H  0.88781365  0.64199108  0.59578190     0.46100
H1282       H  0.75859288  0.64188273  0.57438921     0.41400
H1283       H  0.68409195  0.48598587  0.61963713     0.44900
H1284       H  0.75715272  0.61756584  0.69836106     0.36400
C1285       C  0.41124548  0.45275434  0.39757609    -0.27900
C1286       C  0.42055953  0.47133762  0.43657954     0.01700
C1287       C  0.39617366  0.47635048  0.45789897     0.29800
C1288       C  0.36355920  0.46289219  0.44050236    -0.19700
C1289       C  0.35413810  0.44443103  0.40130686    -0.29100
C1290       C  0.37872188  0.43966097  0.37984129     0.43900
C1291       C  0.45538624  0.48464176  0.45506947     0.05000
O1292       O  0.40468015  0.49639777  0.49422055    -0.57600
H1293       H  0.34593950  0.46819974  0.45716633     0.18000
O1294       O  0.37165189  0.42292787  0.34089286    -0.64300
H1295       H  0.42939735  0.44845215  0.38051938     0.16400
C1296       C  0.46013818  0.47799250  0.49845574     0.28700
C1297       C  0.49247731  0.48846321  0.51454561    -0.25200
C1298       C  0.52110050  0.50418975  0.48775152    -0.24500
C1299       C  0.51665004  0.51203758  0.44469880     0.40100
C1300       C  0.48414928  0.50237902  0.42882956    -0.26900
O1301       O  0.43313642  0.45885482  0.52470071    -0.58800
H1302       H  0.49473619  0.48137165  0.54742348     0.15800
O1303       O  0.54328788  0.52629891  0.41660216    -0.60300
H1304       H  0.48130394  0.50773877  0.39532105     0.14200
H1305       H  0.37903244  0.44072284  0.31842926     0.46100
H1306       H  0.42654935  0.43517567  0.51797407     0.41400
H1307       H  0.55130278  0.55078483  0.41760946     0.44900
H1308       H  0.39025706  0.48163102  0.51790569     0.36400
C1309       C  0.70888419  0.43611750  0.42493010    -0.27900
C1310       C  0.73930469  0.45996975  0.44399541     0.01700
C1311       C  0.74363660  0.49137978  0.45685847     0.29800
C1312       C  0.71626967  0.49692647  0.45548308    -0.19700
C1313       C  0.68452608  0.47101639  0.44238356    -0.29100
C1314       C  0.68150335  0.44143805  0.42410974     0.43900
C1315       C  0.76312516  0.44908909  0.45822293     0.05000
O1316       O  0.77333234  0.51530843  0.47502889    -0.57600
H1317       H  0.71892837  0.51977301  0.46976461     0.18000
O1318       O  0.65094052  0.41597143  0.41013457    -0.64300
H1319       H  0.70546821  0.41201409  0.41442360     0.16400
C1320       C  0.75274997  0.42304145  0.48892974     0.28700
C1321       C  0.77452585  0.41168604  0.50172705    -0.25200
C1322       C  0.80713938  0.42617175  0.48473816    -0.24500
C1323       C  0.81797151  0.45325595  0.45506302     0.40100
C1324       C  0.79595968  0.46455155  0.44216835    -0.26900
O1325       O  0.72116384  0.40839400  0.50659006    -0.58800
H1326       H  0.76564232  0.39124937  0.52490524     0.15800
O1327       O  0.84992912  0.46898009  0.43851866    -0.60300
H1328       H  0.80434146  0.48503063  0.41911955     0.14200
H1329       H  0.64749960  0.42319662  0.38115337     0.46100
H1330       H  0.72275769  0.42357780  0.53059402     0.41400
H1331       H  0.84826266  0.45719946  0.41077974     0.44900
H1332       H  0.77048407  0.51124186  0.50678199     0.36400
C1333       C  0.37598486  0.22554731  0.07603213    -0.27900
C1334       C  0.38904062  0.21126530  0.10532480     0.01700
C1335       C  0.42258054  0.23141078  0.11928689     0.29800
C1336       C  0.44208584  0.26477798  0.10443231    -0.19700
C1337       C  0.42926669  0.27911544  0.07484353    -0.29100
C1338       C  0.39573193  0.25886222  0.06063091     0.43900
C1339       C  0.36728062  0.17572944  0.12161076     0.05000
O1340       O  0.43728431  0.21792704  0.14513489    -0.57600
H1341       H  0.46806353  0.27898589  0.11480076     0.18000
O1342       O  0.38182460  0.27137228  0.03193891    -0.64300
H1343       H  0.35024086  0.21074687  0.06495354     0.16400
C1344       C  0.36237875  0.16856521  0.16650975     0.28700
C1345       C  0.33893397  0.13608974  0.18110878    -0.25200
C1346       C  0.31950637  0.10976320  0.15187401    -0.24500
C1347       C  0.32624419  0.11623035  0.10700447     0.40100
C1348       C  0.34952977  0.14890334  0.09230270    -0.26900
O1349       O  0.37853332  0.19368404  0.19663065    -0.58800
H1350       H  0.33398692  0.13217707  0.21564086     0.15800
O1351       O  0.30778263  0.09183201  0.07690905    -0.60300
H1352       H  0.35289323  0.15356156  0.05767700     0.14200
H1353       H  0.38396855  0.26308171  0.00300676     0.46100
H1354       H  0.36463005  0.20462715  0.19924373     0.41400
H1355       H  0.32024491  0.07957489  0.07232386     0.44900
H1356       H  0.44318245  0.23095886  0.17263602     0.36400
C1357       C  0.66882466  0.45096328  0.94994523    -0.27900
C1358       C  0.68517612  0.43286111  0.95946563     0.01700
C1359       C  0.66896310  0.40396989  0.98605087     0.29800
C1360       C  0.63661414  0.39342059  0.00198519    -0.19700
C1361       C  0.62070250  0.41210916  0.99322959    -0.29100
C1362       C  0.63725986  0.44127324  0.96720205     0.43900
C1363       C  0.72072128  0.44701864  0.94649631     0.05000
O1364       O  0.68561110  0.38764757  0.99954660    -0.57600
H1365       H  0.62451715  0.37135530  0.02255674     0.18000
O1366       O  0.62265812  0.46037513  0.95786498    -0.64300
H1367       H  0.68107544  0.47340075  0.93003722     0.16400
C1368       C  0.73237171  0.42708410  0.92658210     0.28700
C1369       C  0.76698269  0.43888120  0.92474650    -0.25200
C1370       C  0.78981566  0.47017942  0.94289252    -0.24500
C1371       C  0.77836427  0.49191138  0.95676737     0.40100
C1372       C  0.74394497  0.48023640  0.95864071    -0.26900
O1373       O  0.71006024  0.39572527  0.91055773    -0.58800
H1374       H  0.77562944  0.42190837  0.91415239     0.15800
O1375       O  0.80018559  0.52243605  0.97519666    -0.60300
H1376       H  0.73540613  0.49610132  0.97349018     0.14200
H1377       H  0.63228916  0.47909187  0.97921275     0.46100
H1378       H  0.71425184  0.37955303  0.92696297     0.41400
H1379       H  0.81247728  0.53736243  0.95047268     0.44900
H1380       H  0.67278908  0.36457147  0.98733622     0.36400
C1381       C  0.49056566  0.56524096  0.95729691    -0.27900
C1382       C  0.49471223  0.54015088  0.93662259     0.01700
C1383       C  0.51395305  0.54893455  0.89791250     0.29800
C1384       C  0.52660170  0.58120722  0.87945075    -0.19700
C1385       C  0.52083180  0.60552518  0.89917316    -0.29100
C1386       C  0.50355604  0.59749425  0.93918519     0.43900
C1387       C  0.47916420  0.50520257  0.95566650     0.05000
O1388       O  0.51991822  0.52592605  0.87715402    -0.57600
H1389       H  0.53923218  0.58652441  0.84834729     0.18000
O1390       O  0.49760027  0.62057307  0.95980802    -0.64300
H1391       H  0.47607207  0.55951517  0.98693403     0.16400
C1392       C  0.48280888  0.50004203  0.00014324     0.28700
C1393       C  0.47208941  0.46744372  0.01595349    -0.25200
C1394       C  0.45924340  0.43943130  0.98785782    -0.24500
C1395       C  0.45187619  0.44397898  0.94473657     0.40100
C1396       C  0.46176153  0.47650599  0.92901733    -0.26900
O1397       O  0.49979072  0.52687482  0.02773137    -0.58800
H1398       H  0.47882652  0.46488018  0.04893583     0.15800
O1399       O  0.43999408  0.41772239  0.91580610    -0.60300
H1400       H  0.45757688  0.47947161  0.89507315     0.14200
H1401       H  0.51864664  0.63558255  0.97571566     0.46100
H1402       H  0.52381842  0.53366414  0.02440304     0.41400
H1403       H  0.41623626  0.40260015  0.92407104     0.44900
H1404       H  0.53912027  0.52663924  0.89288599     0.36400
C1405       C  0.54049143  0.46137576  0.19864296    -0.27900
C1406       C  0.53728879  0.43865717  0.23155143     0.01700
C1407       C  0.53305492  0.40707124  0.21961926     0.29800
C1408       C  0.53224133  0.39872056  0.17590155    -0.19700
C1409       C  0.53615404  0.42154944  0.14285526    -0.29100
C1410       C  0.54022867  0.45317025  0.15461264     0.43900
C1411       C  0.54084403  0.44849777  0.27817551     0.05000
O1412       O  0.53053468  0.38433764  0.25048396    -0.57600
H1413       H  0.52877014  0.37413343  0.16796559     0.18000
O1414       O  0.54434268  0.47638414  0.12358990    -0.64300
H1415       H  0.54357166  0.48571583  0.20708758     0.16400
C1416       C  0.56922948  0.47813312  0.29291578     0.28700
C1417       C  0.57564758  0.48366481  0.33743989    -0.25200
C1418       C  0.55403139  0.46015872  0.36810351    -0.24500
C1419       C  0.52429290  0.43181460  0.35354939     0.40100
C1420       C  0.51786884  0.42623191  0.30891130    -0.26900
O1421       O  0.59238268  0.50043894  0.26413567    -0.58800
H1422       H  0.59838567  0.50597574  0.34791768     0.15800
O1423       O  0.50271529  0.40804936  0.38229033    -0.60300
H1424       H  0.49557394  0.40358216  0.29820767     0.14200
H1425       H  0.56878662  0.48893159  0.11751165     0.46100
H1426       H  0.58865071  0.51998011  0.26370883     0.41400
H1427       H  0.48622447  0.41519869  0.38997644     0.44900
H1428       H  0.55401706  0.39056341  0.25751773     0.36400
C1429       C  0.56472741  0.42934361  0.80585395    -0.27900
C1430       C  0.53847751  0.42659818  0.77933760     0.01700
C1431       C  0.50777762  0.41898720  0.79884054     0.29800
C1432       C  0.50346579  0.41336748  0.84363044    -0.19700
C1433       C  0.52959772  0.41576456  0.87010335    -0.29100
C1434       C  0.56063861  0.42441884  0.85089523     0.43900
C1435       C  0.54326841  0.43063698  0.73143357     0.05000
O1436       O  0.48169505  0.41670015  0.77444590    -0.57600
H1437       H  0.47938868  0.40689939  0.85769826     0.18000
O1438       O  0.58634361  0.42589099  0.87529011    -0.64300
H1439       H  0.58833072  0.43449505  0.79146132     0.16400
C1440       C  0.57240170  0.45793077  0.71383455     0.28700
C1441       C  0.57855265  0.45930084  0.66925334    -0.25200
C1442       C  0.55549923  0.43431328  0.64106048    -0.24500
C1443       C  0.52539896  0.40805135  0.65807668     0.40100
C1444       C  0.51960103  0.40616085  0.70302020    -0.26900
O1445       O  0.59523760  0.48329058  0.74002550    -0.58800
H1446       H  0.60154804  0.48012780  0.65660880     0.15800
O1447       O  0.50212722  0.38346146  0.63142547    -0.60300
H1448       H  0.49708277  0.38486759  0.71580296     0.14200
H1449       H  0.60401306  0.44996736  0.87539684     0.46100
H1450       H  0.58828297  0.50060665  0.73998178     0.41400
H1451       H  0.50971602  0.36673332  0.62827451     0.44900
H1452       H  0.48563609  0.44001582  0.77280658     0.36400
C1453       C  0.34495503  0.16309966  0.59633404    -0.27900
C1454       C  0.35904413  0.14842200  0.62321241     0.01700
C1455       C  0.35133488  0.14532669  0.66787613     0.29800
C1456       C  0.32785877  0.15380938  0.68407666    -0.19700
C1457       C  0.31144279  0.16580147  0.65665714    -0.29100
C1458       C  0.32174708  0.17216675  0.61279704     0.43900
C1459       C  0.38110434  0.13574508  0.60473956     0.05000
O1460       O  0.36516149  0.13217670  0.69574219    -0.57600
H1461       H  0.32064788  0.14863217  0.71791854     0.18000
O1462       O  0.30841215  0.18612251  0.58543595    -0.64300
H1463       H  0.35136850  0.16683906  0.56216667     0.16400
C1464       C  0.36937155  0.11036306  0.57245040     0.28700
C1465       C  0.39058918  0.09894006  0.55556812    -0.25200
C1466       C  0.42390408  0.11249692  0.57023565    -0.24500
C1467       C  0.43510958  0.13705898  0.60370410     0.40100
C1468       C  0.41392317  0.14830934  0.62050580    -0.26900
O1469       O  0.33724609  0.09676391  0.55675097    -0.58800
H1470       H  0.38138653  0.08048695  0.52962007     0.15800
O1471       O  0.46726531  0.15111666  0.61953758    -0.60300
H1472       H  0.42347820  0.16753094  0.64552313     0.14200
H1473       H  0.29418091  0.16814625  0.56457817     0.46100
H1474       H  0.32308834  0.07876803  0.57761689     0.41400
H1475       H  0.46630712  0.13547937  0.64247272     0.44900
H1476       H  0.35044473  0.10741594  0.69371411     0.36400
C1477       C  0.66517759  0.17177332  0.43148861    -0.27900
C1478       C  0.68218396  0.20510637  0.44647089     0.01700
C1479       C  0.66599005  0.21611991  0.47550565     0.29800
C1480       C  0.63327281  0.19416187  0.48898331    -0.19700
C1481       C  0.61596512  0.16069706  0.47440289    -0.29100
C1482       C  0.63214771  0.14961086  0.44491518     0.43900
C1483       C  0.71757664  0.22837903  0.43480462     0.05000
O1484       O  0.68229413  0.24832297  0.49170189    -0.57600
H1485       H  0.62159536  0.20343984  0.51144352     0.18000
O1486       O  0.61623455  0.11722145  0.42936234    -0.64300
H1487       H  0.67752544  0.16296937  0.40941501     0.16400
C1488       C  0.74324733  0.22323799  0.45141071     0.28700
C1489       C  0.77611110  0.25036534  0.45417184    -0.25200
C1490       C  0.78341183  0.28264234  0.44104367    -0.24500
C1491       C  0.75861273  0.28670952  0.41949929     0.40100
C1492       C  0.72595317  0.25951464  0.41610103    -0.26900
O1493       O  0.73568410  0.19323770  0.47047884    -0.58800
H1494       H  0.79487954  0.24696785  0.47124162     0.15800
O1495       O  0.76515225  0.31790042  0.40588322    -0.60300
H1496       H  0.70639970  0.26363965  0.40290573     0.14200
H1497       H  0.60428738  0.11776313  0.40276825     0.46100
H1498       H  0.73943373  0.18029276  0.44749153     0.41400
H1499       H  0.77545333  0.32082553  0.37676811     0.44900
H1500       H  0.69540258  0.24761630  0.51690946     0.36400
C1501       C  0.48875409  0.88691893  0.45289226    -0.27900
C1502       C  0.49850997  0.91826712  0.43368042     0.01700
C1503       C  0.52203355  0.92877148  0.39931377     0.29800
C1504       C  0.53369167  0.90738151  0.38341164    -0.19700
C1505       C  0.52277633  0.87531144  0.40147042    -0.29100
C1506       C  0.50058514  0.86576113  0.43749212     0.43900
C1507       C  0.48473637  0.93992340  0.45091372     0.05000
O1508       O  0.53482056  0.96047569  0.38221579    -0.57600
H1509       H  0.55089052  0.91577316  0.35620686     0.18000
O1510       O  0.48871053  0.83494005  0.45684016    -0.64300
H1511       H  0.47111335  0.87831653  0.47963817     0.16400
C1512       C  0.47002690  0.95387324  0.42353315     0.28700
C1513       C  0.45958027  0.97591307  0.44050654    -0.25200
C1514       C  0.46374526  0.98487036  0.48478067    -0.24500
C1515       C  0.47585259  0.96864505  0.51258594     0.40100
C1516       C  0.48611054  0.94660676  0.49572813    -0.26900
O1517       O  0.46545355  0.94583693  0.38016258    -0.58800
H1518       H  0.45053894  0.98795078  0.41824710     0.15800
O1519       O  0.48004437  0.97598469  0.55613886    -0.60300
H1520       H  0.49662122  0.93581004  0.51773599     0.14200
H1521       H  0.50491271  0.83867899  0.48046887     0.46100
H1522       H  0.47942122  0.96729975  0.36449432     0.41400
H1523       H  0.45767012  0.96132619  0.56921475     0.44900
H1524       H  0.52761450  0.95714284  0.35135325     0.36400
C1525       C  0.50392672  0.30023428  0.44020795    -0.27900
C1526       C  0.51979712  0.28291638  0.45546806     0.01700
C1527       C  0.54690303  0.29897319  0.48467779     0.29800
C1528       C  0.55817499  0.33211869  0.49772701    -0.19700
C1529       C  0.54259323  0.34984519  0.48237609    -0.29100
C1530       C  0.51506159  0.33343860  0.45337462     0.43900
C1531       C  0.50776589  0.24771386  0.44226857     0.05000
O1532       O  0.56243841  0.28231281  0.50091665    -0.57600
H1533       H  0.57920340  0.34390766  0.52003499     0.18000
O1534       O  0.49915190  0.34966441  0.43699504    -0.64300
H1535       H  0.48295439  0.28801562  0.41786973     0.16400
C1536       C  0.47668369  0.22150896  0.45708297     0.28700
C1537       C  0.46975173  0.18808631  0.45461420    -0.25200
C1538       C  0.49395684  0.18078366  0.43833573    -0.24500
C1539       C  0.52316014  0.20662693  0.41874905     0.40100
C1540       C  0.52991237  0.23986468  0.42087565    -0.26900
O1541       O  0.45450732  0.22856680  0.47791715    -0.58800
H1542       H  0.44739731  0.16857464  0.47032727     0.15800
O1543       O  0.54713927  0.20018485  0.40225244    -0.60300
H1544       H  0.55376645  0.25985298  0.40900536     0.14200
H1545       H  0.48021611  0.34399243  0.45709652     0.46100
H1546       H  0.46083024  0.23081091  0.50906207     0.41400
H1547       H  0.54049573  0.19360377  0.37156601     0.44900
H1548       H  0.54884873  0.26970433  0.52643454     0.36400
C1549       C  0.74696815  0.13054180  0.06299269    -0.27900
C1550       C  0.75230790  0.12712319  0.10746755     0.01700
C1551       C  0.72301583  0.10827400  0.13327276     0.29800
C1552       C  0.69053659  0.09642621  0.11562662    -0.19700
C1553       C  0.68587248  0.09964372  0.07114613    -0.29100
C1554       C  0.71465292  0.11526807  0.04464717     0.43900
C1555       C  0.78799388  0.14277977  0.12588750     0.05000
O1556       O  0.72546033  0.10092839  0.17579444    -0.57600
H1557       H  0.66887166  0.08432929  0.13675950     0.18000
O1558       O  0.71161405  0.11784053  0.00068117    -0.64300
H1559       H  0.76773416  0.14577092  0.04172514     0.16400
C1560       C  0.81563537  0.14707482  0.10025565     0.28700
C1561       C  0.84805840  0.16109960  0.11815056    -0.25200
C1562       C  0.85379196  0.16708513  0.16291844    -0.24500
C1563       C  0.82701879  0.16414871  0.18847548     0.40100
C1564       C  0.79515041  0.15358668  0.16972329    -0.26900
O1565       O  0.81134703  0.13550343  0.05833835    -0.58800
H1566       H  0.86817440  0.16377982  0.09735786     0.15800
O1567       O  0.83136059  0.17045128  0.23223585    -0.60300
H1568       H  0.77586363  0.15307701  0.19030870     0.14200
H1569       H  0.71014157  0.09739981  0.98826869     0.46100
H1570       H  0.80163720  0.11079232  0.06082520     0.41400
H1571       H  0.84159798  0.19520177  0.23503549     0.44900
H1572       H  0.72851815  0.08098386  0.17471694     0.36400
C1573       C  0.56985921  0.21752238  0.93704314    -0.27900
C1574       C  0.55060338  0.22615514  0.96391651     0.01700
C1575       C  0.54665939  0.21682404  0.00810651     0.29800
C1576       C  0.55961424  0.19708920  0.02405233    -0.19700
C1577       C  0.57756858  0.18723513  0.99690632    -0.29100
C1578       C  0.58323021  0.19799880  0.95331894     0.43900
C1579       C  0.53470580  0.24518560  0.94691272     0.05000
O1580       O  0.52942711  0.22625695  0.03581673    -0.57600
H1581       H  0.55467373  0.18848440  0.05742740     0.18000
O1582       O  0.60026214  0.18810227  0.92593842    -0.64300
H1583       H  0.57347342  0.22486674  0.90316984     0.16400
C1584       C  0.55448284  0.27849871  0.93224288     0.28700
C1585       C  0.54058536  0.29964080  0.93019243    -0.25200
C1586       C  0.50731891  0.28798473  0.94335652    -0.24500
C1587       C  0.48644848  0.25357461  0.95215381     0.40100
C1588       C  0.50015001  0.23231626  0.95354511    -0.26900
O1589       O  0.58818027  0.29168225  0.92477196    -0.58800
H1590       H  0.55709415  0.32626828  0.92425136     0.15800
O1591       O  0.45416721  0.24171659  0.96629571    -0.60300
H1592       H  0.48455500  0.20658118  0.96438326     0.14200
H1593       H  0.58272692  0.16724749  0.91176978     0.46100
H1594       H  0.59925860  0.30098390  0.95312078     0.41400
H1595       H  0.44105937  0.23993188  0.93981746     0.44900
H1596       H  0.54627222  0.24898434  0.04631446     0.36400
C1597       C  0.39734446  0.88876188  0.95625133    -0.27900
C1598       C  0.41812656  0.92039029  0.93761764     0.01700
C1599       C  0.40470809  0.93140062  0.90417030     0.29800
C1600       C  0.37180682  0.91018225  0.88844566    -0.19700
C1601       C  0.35167131  0.87776777  0.90571221    -0.29100
C1602       C  0.36460490  0.86771660  0.94087958     0.43900
C1603       C  0.45348339  0.94165825  0.95378720     0.05000
O1604       O  0.42376341  0.96264047  0.88606989    -0.57600
H1605       H  0.36271750  0.91844871  0.86128698     0.18000
O1606       O  0.34590639  0.83656870  0.95945426    -0.64300
H1607       H  0.40689232  0.87987222  0.98220583     0.16400
C1608       C  0.46004922  0.95175767  0.99764037     0.28700
C1609       C  0.49293677  0.97463741  0.01134602    -0.25200
C1610       C  0.52007732  0.98790508  0.98209194    -0.24500
C1611       C  0.51394201  0.97523025  0.93924389     0.40100
C1612       C  0.48092425  0.95257081  0.92531086    -0.26900
O1613       O  0.43403922  0.94227597  0.02631435    -0.58800
H1614       H  0.49665146  0.98495303  0.04390514     0.15800
O1615       O  0.53932825  0.98813864  0.90922638    -0.60300
H1616       H  0.47655512  0.94462585  0.89163153     0.14200
H1617       H  0.33005986  0.83875659  0.97921947     0.46100
H1618       H  0.43410176  0.92437548  0.04432512     0.41400
H1619       H  0.55208385  0.97626386  0.91450323     0.44900
H1620       H  0.42010437  0.97811584  0.90484845     0.36400
C1621       C  0.50033543  0.07413307  0.28754417    -0.27900
C1622       C  0.52181597  0.06237129  0.27458488     0.01700
C1623       C  0.53586332  0.05091611  0.30649926     0.29800
C1624       C  0.52872888  0.05198107  0.35070904    -0.19700
C1625       C  0.50784662  0.06472045  0.36383109    -0.29100
C1626       C  0.49345034  0.07561315  0.33133067     0.43900
C1627       C  0.53199356  0.06603773  0.22825012     0.05000
O1628       O  0.55716726  0.03936395  0.29489703    -0.57600
H1629       H  0.54011128  0.04347985  0.37473040     0.18000
O1630       O  0.47298424  0.08846383  0.34171487    -0.64300
H1631       H  0.48992694  0.08374868  0.26361151     0.16400
C1632       C  0.50802046  0.05297778  0.19444500     0.28700
C1633       C  0.51816448  0.06109852  0.15099297    -0.25200
C1634       C  0.55201847  0.08294740  0.14068334    -0.24500
C1635       C  0.57604492  0.09501923  0.17462912     0.40100
C1636       C  0.56592529  0.08656159  0.21776172    -0.26900
O1637       O  0.47466975  0.03215159  0.20367098    -0.58800
H1638       H  0.49937639  0.05110116  0.12549961     0.15800
O1639       O  0.60957559  0.11557816  0.16621675    -0.60300
H1640       H  0.58462550  0.09718400  0.24332313     0.14200
H1641       H  0.48811096  0.11317503  0.34366793     0.46100
H1642       H  0.46377905  0.04588707  0.19859615     0.41400
H1643       H  0.61885109  0.10020833  0.16323995     0.44900
H1644       H  0.54231474  0.01541564  0.28686054     0.36400
C1645       C  0.54561099  0.12027826  0.71168591    -0.27900
C1646       C  0.54571792  0.09203012  0.72868049     0.01700
C1647       C  0.54270210  0.06656547  0.70000195     0.29800
C1648       C  0.53973136  0.06980951  0.65498043    -0.19700
C1649       C  0.53965753  0.09820966  0.63799664    -0.29100
C1650       C  0.54285033  0.12365961  0.66705011     0.43900
C1651       C  0.55038570  0.09050300  0.77625520     0.05000
O1652       O  0.54086616  0.03771882  0.71595542    -0.57600
H1653       H  0.53663559  0.04969654  0.63351111     0.18000
O1654       O  0.54328107  0.15213474  0.65231585    -0.64300
H1655       H  0.54824424  0.14020908  0.73318602     0.16400
C1656       C  0.57752959  0.08772444  0.79238307     0.28700
C1657       C  0.58266844  0.08804212  0.83716269    -0.25200
C1658       C  0.56114049  0.09115287  0.86699483    -0.24500
C1659       C  0.53451729  0.09500625  0.85089594     0.40100
C1660       C  0.52922513  0.09451220  0.80581966    -0.26900
O1661       O  0.60031279  0.08666596  0.76452735    -0.58800
H1662       H  0.60396363  0.08605181  0.84851903     0.15800
O1663       O  0.51294885  0.09817045  0.87871003    -0.60300
H1664       H  0.50849366  0.09722254  0.79385352     0.14200
H1665       H  0.56710237  0.16806334  0.64517653     0.46100
H1666       H  0.59821750  0.06424033  0.76881439     0.41400
H1667       H  0.52185841  0.12275043  0.88150465     0.44900
H1668       H  0.56066611  0.03721881  0.70402465     0.36400
C1669       C  0.74162840  0.30010771  0.96991255    -0.27900
C1670       C  0.75719016  0.28354924  0.95061335     0.01700
C1671       C  0.79220609  0.30079775  0.94570159     0.29800
C1672       C  0.81140423  0.33312354  0.96289568    -0.19700
C1673       C  0.79624065  0.34898972  0.98498461    -0.29100
C1674       C  0.76092812  0.33283953  0.98669610     0.43900
C1675       C  0.73793696  0.24663127  0.94470117     0.05000
O1676       O  0.80782719  0.28569198  0.92519079    -0.57600
H1677       H  0.83846849  0.34554463  0.95966123     0.18000
O1678       O  0.74516120  0.34763272  0.00743444    -0.64300
H1679       H  0.71464032  0.28686823  0.97434207     0.16400
C1680       C  0.74482765  0.22640749  0.97236540     0.28700
C1681       C  0.72309138  0.19187129  0.97361546    -0.25200
C1682       C  0.69355235  0.17683524  0.94872292    -0.24500
C1683       C  0.68839842  0.19632243  0.91759542     0.40100
C1684       C  0.71040670  0.23130241  0.91611520    -0.26900
O1685       O  0.77065927  0.24057551  0.00191976    -0.58800
H1686       H  0.72701248  0.17775729  0.99880072     0.15800
O1687       O  0.65971623  0.18235475  0.89287377    -0.60300
H1688       H  0.70488310  0.24666446  0.89467024     0.14200
H1689       H  0.74166381  0.36091592  0.98470774     0.46100
H1690       H  0.76078595  0.24444148  0.02843481     0.41400
H1691       H  0.66377018  0.17006798  0.86928604     0.44900
H1692       H  0.82029409  0.28132156  0.94821954     0.36400
loop_ 
_geom_bond_atom_site_label_1 
_geom_bond_atom_site_label_2 
_geom_bond_distance 
_geom_bond_site_symmetry_2 
_ccdc_geom_bond_type 
O1           C16   1.266       .  A
O1           Al9   1.915       .  S
C2           O12   1.263       .  A
C2            O3   1.254   1_556  A
C2         C1682   1.467       .  S
O3           Al5   1.867       .  S
O4            C6   1.258       .  A
O4           Al5   1.919       .  S
Al5          O13   1.912       .  S
Al5          O15   1.907       .  S
Al5          O14   1.780       .  S
C6           O19   1.254       .  A
C6         C1577   1.466   1_554  S
O7           C17   1.270       .  A
O7           Al9   1.928   1_556  S
O8           C21   1.277       .  A
O8          Al18   1.964       .  S
Al9          O22   1.857   1_554  S
Al9          O19   1.896       .  S
Al9          O14   1.784       .  S
O10          C17   1.263       .  A
O10         Al18   1.897       .  S
O11          C20   1.271       .  A
O11         Al18   1.950   1_554  S
O12         Al18   1.933       .  S
O13          C20   1.264       .  A
O14         Al18   1.784   1_554  S
O15          C16   1.263       .  A
C16        C1634   1.485       .  S
C17        C1658   1.485       .  S
C20        C1553   1.500       .  S
C21          O22   1.252       .  A
C21        C1610   1.482   1_545  S
O23          C38   1.281       .  A
O23         Al31   1.949       .  S
C24          O34   1.251       .  A
C24          O25   1.261       .  A
C24        C1481   1.483       .  S
O25         Al27   1.913       .  S
O26          C28   1.255       .  A
O26         Al27   1.872       .  S
Al27         O35   1.856       .  S
Al27         O37   1.927       .  S
Al27         O36   1.759       .  S
C28          O41   1.269       .  A
C28        C1538   1.469       .  S
O29          C39   1.261       .  A
O29         Al31   1.863       .  S
O30          C43   1.247       .  A
O30         Al40   1.872       .  S
Al31         O44   1.997       .  S
Al31         O41   1.961       .  S
Al31         O36   1.794       .  S
O32          C39   1.278       .  A
O32         Al40   1.973       .  S
O33          C42   1.273       .  A
O33         Al40   1.957       .  S
O34         Al40   1.877       .  S
O35          C42   1.255       .  A
O36         Al40   1.773       .  S
O37          C38   1.270       .  A
C38        C1466   1.504       .  S
C39        C1625   1.492       .  S
C42        C1649   1.486       .  S
C43          O44   1.272       .  A
C43        C1514   1.505   1_545  S
O45          C60   1.265       .  A
O45         Al53   1.907       .  S
C46          O56   1.263       .  A
C46          O47   1.255   1_556  A
C46        C1586   1.462       .  S
O47         Al49   1.872       .  S
O48          C50   1.257       .  A
O48         Al49   1.911       .  S
Al49         O57   1.898       .  S
Al49         O59   1.910       .  S
Al49         O58   1.783       .  S
C50          O63   1.251       .  A
C50        C1361   1.475   1_554  S
O51          C61   1.269       .  A
O51         Al53   1.922   1_556  S
O52          C65   1.277       .  A
O52         Al62   1.967       .  S
Al53         O66   1.843   1_554  S
Al53         O63   1.882       .  S
Al53         O58   1.783       .  S
O54          C61   1.264       .  A
O54         Al62   1.910       .  S
O55          C64   1.271       .  A
O55         Al62   1.956   1_554  S
O56         Al62   1.924       .  S
O57          C64   1.263       .  A
O58         Al62   1.791   1_554  S
O59          C60   1.266       .  A
C60        C1409   1.485       .  S
C61        C1433   1.482       .  S
C64        C1337   1.507       .  S
C65          O66   1.250       .  A
C65        C1394   1.480       .  S
O67          C82   1.279       .  A
O67         Al75   1.947       .  S
C68          O78   1.253       .  A
C68          O69   1.263       .  A
C68        C1529   1.485       .  S
O69         Al71   1.924       .  S
O70          C72   1.260       .  A
O70         Al71   1.880       .  S
Al71         O79   1.872       .  S
Al71         O81   1.912       .  S
Al71         O80   1.761       .  S
C72          O85   1.269       .  A
C72        C1313   1.469       .  S
O73          C83   1.263       .  A
O73         Al75   1.874       .  S
O74          C87   1.249       .  A
O74         Al84   1.869       .  S
Al75         O88   1.994       .  S
Al75         O85   1.950       .  S
Al75         O80   1.795       .  S
O76          C83   1.273       .  A
O76         Al84   1.951       .  S
O77          C86   1.268       .  A
O77         Al84   1.942       .  S
O78         Al84   1.875       .  S
O79          C86   1.258       .  A
O80         Al84   1.769       .  S
O81          C82   1.266       .  A
C82        C1274   1.495       .  S
C83        C1418   1.480       .  S
C86        C1442   1.477       .  S
C87          O88   1.272       .  A
C87        C1298   1.504       .  S
O89         C104   1.281       .  A
O89         Al97   1.957       .  S
C90         O100   1.252       .  A
C90          O91   1.263       .  A
C90        C1322   1.483       .  S
O91         Al93   1.924       .  S
O92          C94   1.262       .  A
O92         Al93   1.887       .  S
Al93        O101   1.870       .  S
Al93        O103   1.913       .  S
Al93        O102   1.761       .  S
C94         O107   1.270       .  A
C94        C1490   1.469       .  S
O95         C105   1.261       .  A
O95         Al97   1.866       .  S
O96         C109   1.247       .  A
O96        Al106   1.867       .  S
Al97        O110   2.002       .  S
Al97        O107   1.950       .  S
Al97        O102   1.790       .  S
O98         C105   1.274       .  A
O98        Al106   1.964       .  S
O99         C108   1.270       .  A
O99        Al106   1.945       .  S
O100       Al106   1.876       .  S
O101        C108   1.258       .  A
O102       Al106   1.772       .  S
O103        C104   1.266       .  A
C104       C1169   1.505       .  S
C105       C1250   1.489       .  S
C108       C1226   1.471       .  S
C109        O110   1.274       .  A
C109       C1193   1.506       .  S
O111        C126   1.266       .  A
O111       Al119   1.907       .  S
C112        O122   1.259       .  A
C112        O113   1.252   1_556  A
C112       C1370   1.456       .  S
O113       Al115   1.861       .  S
O114        C116   1.257       .  A
O114       Al115   1.920       .  S
Al115       O123   1.901       .  S
Al115       O125   1.915       .  S
Al115       O124   1.783       .  S
C116        O129   1.253       .  A
C116       C1673   1.481   1_554  S
O117        C127   1.268       .  A
O117       Al119   1.911   1_556  S
O118        C131   1.274       .  A
O118       Al128   1.961       .  S
Al119       O132   1.853   1_554  S
Al119       O129   1.890       .  S
Al119       O124   1.786       .  S
O120        C127   1.267       .  A
O120       Al128   1.914       .  S
O121        C130   1.274       .  A
O121       Al128   1.962   1_554  S
O122       Al128   1.916       .  S
O123        C130   1.265       .  A
O124       Al128   1.791   1_554  S
O125        C126   1.267       .  A
C126       C1241   1.482       .  S
C127       C1217   1.480       .  S
C130       C1121   1.513       .  S
C131        O132   1.249       .  A
C131       C1145   1.483       .  S
O133        C148   1.266       .  A
O133       Al141   1.913       .  S
C134        O144   1.259       .  A
C134        O135   1.254       .  A
C134       C1097   1.461       .  S
O135       Al137   1.875       .  S
O136        C138   1.258       .  A
O136       Al137   1.915       .  S
Al137       O145   1.894       .  S
Al137       O147   1.915       .  S
Al137       O146   1.781       .  S
C138        O151   1.254       .  A
C138       C1001   1.474       .  S
O139        C149   1.267       .  A
O139       Al141   1.912       .  S
O140        C153   1.276       .  A
O140       Al150   1.965       .  S
Al141       O154   1.849       .  S
Al141       O151   1.888       .  S
Al141       O146   1.783       .  S
O142        C149   1.267       .  A
O142       Al150   1.915       .  S
O143        C152   1.277       .  A
O143       Al150   1.975       .  S
O144       Al150   1.918       .  S
O145        C152   1.263       .  A
O146       Al150   1.788       .  S
O147        C148   1.266       .  A
C148       C1049   1.488       .  S
C149       C1082   1.482       .  S
C152       C1505   1.514       .  S
C153        O154   1.250       .  A
C153       C1034   1.481       .  S
O155        C170   1.279       .  A
O155       Al163   1.945       .  S
C156        O166   1.253       .  A
C156        O157   1.261       .  A
C156        C929   1.485       .  S
O157       Al159   1.922       .  S
O158        C160   1.257       .  A
O158       Al159   1.871       .  S
Al159       O167   1.866       .  S
Al159       O169   1.917       .  S
Al159       O168   1.763       .  S
C160        O173   1.268       .  A
C160        C977   1.464       .  S
O161        C171   1.263       .  A
O161       Al163   1.873       .  S
O162        C175   1.247       .  A
O162       Al172   1.868       .  S
Al163       O176   1.991       .  S
Al163       O173   1.951       .  S
Al163       O168   1.795       .  S
O164        C171   1.276       .  A
O164       Al172   1.966       .  S
O165        C174   1.271       .  A
O165       Al172   1.946       .  S
O166       Al172   1.873       .  S
O167        C174   1.257       .  A
O168       Al172   1.768       .  S
O169        C170   1.268       .  A
C170       C1385   1.491       .  S
C171       C1058   1.491       .  S
C174       C1073   1.488       .  S
C175        O176   1.271       .  A
C175        C953   1.500       .  S
O177        C192   1.280       .  A
O177       Al185   1.951       .  S
C178        O188   1.252       .  A
C178        O179   1.262       .  A
C178        C986   1.481       .  S
O179       Al181   1.926       .  S
O180        C182   1.258       .  A
O180       Al181   1.870       .  S
Al181       O189   1.869       .  S
Al181       O191   1.916       .  S
Al181       O190   1.761       .  S
C182        O195   1.271       .  A
C182        C905   1.466       .  S
O183        C193   1.259       .  A
O183       Al185   1.866       .  S
O184        C197   1.249       .  A
O184       Al194   1.869       .  S
Al185       O198   2.002       .  S
Al185       O195   1.952       .  S
Al185       O190   1.789       .  S
O186        C193   1.273       .  A
O186       Al194   1.959       .  S
O187        C196   1.271       .  A
O187       Al194   1.951       .  S
O188       Al194   1.871       .  S
O189        C196   1.257       .  A
O190       Al194   1.770       .  S
O191        C192   1.266       .  A
C192       C1154   1.501       .  S
C193        C881   1.488       .  S
C196        C857   1.471       .  S
C197        O198   1.276       .  A
C197        C842   1.502       .  S
O199        C214   1.264       .  A
O199       Al207   1.906       .  S
C200        O210   1.262       .  A
C200        O201   1.256       .  A
C200       C1010   1.461       .  S
O201       Al203   1.875       .  S
O202        C204   1.255       .  A
O202       Al203   1.905       .  S
Al203       O211   1.895       .  S
Al203       O213   1.911       .  S
Al203       O212   1.781       .  S
C204        O217   1.254       .  A
C204        C785   1.461       .  S
O205        C215   1.268       .  A
O205       Al207   1.916       .  S
O206        C219   1.276       .  A
O206       Al216   1.961       .  S
Al207       O220   1.862       .  S
Al207       O217   1.895       .  S
Al207       O212   1.784       .  S
O208        C215   1.265       .  A
O208       Al216   1.909       .  S
O209        C218   1.271       .  A
O209       Al216   1.956       .  S
O210       Al216   1.920       .  S
O211        C218   1.262       .  A
O212       Al216   1.789       .  S
O213        C214   1.265       .  A
C214        C890   1.484       .  S
C215        C866   1.487       .  S
C218       C1289   1.508       .  S
C219        O220   1.253       .  A
C219        C818   1.480       .  S
O221        C236   1.266       .  A
O221       Al229   1.904       .  S
C222        O232   1.256       .  A
C222        O223   1.258       .  A
C222        C794   1.454       .  S
O223       Al225   1.882       .  S
O224        C226   1.255       .  A
O224       Al225   1.910       .  S
Al225       O233   1.890       .  S
Al225       O235   1.928       .  S
Al225       O234   1.775       .  S
C226        O239   1.255       .  A
C226       C1106   1.468       .  S
O227        C237   1.271       .  A
O227       Al229   1.922       .  S
O228        C241   1.275       .  A
O228       Al238   1.950       .  S
Al229       O242   1.857       .  S
Al229       O239   1.907       .  S
Al229       O234   1.780       .  S
O230        C237   1.267       .  A
O230       Al238   1.911       .  S
O231        C240   1.275       .  A
O231       Al238   1.973       .  S
O232       Al238   1.901       .  S
O233        C240   1.261       .  A
O234       Al238   1.789       .  S
O235        C236   1.268       .  A
C236        C746   1.492       .  S
C237        C761   1.483       .  S
C240       C1202   1.511       .  S
C241        O242   1.252       .  A
C241        C722   1.476       .  S
O243        C258   1.277       .  A
O243       Al251   1.945       .  S
C244        O254   1.252       .  A
C244        O245   1.263       .  A
C244        C914   1.479       .  S
O245       Al247   1.926       .  S
O246        C248   1.257       .  A
O246       Al247   1.868       .  S
Al247       O255   1.867       .  S
Al247       O257   1.911       .  S
Al247       O256   1.760       .  S
C248        O261   1.271       .  A
C248        C938   1.466       .  S
O249        C259   1.261       .  A
O249       Al251   1.874       .  S
O250        C263   1.249       .  A
O250       Al260   1.868       .  S
Al251       O264   1.994       .  S
Al251       O261   1.961       .  S
Al251       O256   1.790       .  S
O252        C259   1.273       .  A
O252       Al260   1.959       .  S
O253        C262   1.270       .  A
O253       Al260   1.952       .  S
O254       Al260   1.865       .  S
O255        C262   1.257       .  A
O256       Al260   1.768       .  S
O257        C258   1.266       .  A
C258       C1601   1.496       .  S
C259        C737   1.483       .  S
C262        C770   1.476       .  S
C263        O264   1.274       .  A
C263        C689   1.499       .  S
O265        C280   1.269       .  A
O265       Al273   1.935       .  S
C266        O276   1.268       .  A
C266        O267   1.258       .  A
C266        C665   1.464       .  S
O267       Al269   1.882       .  S
O268        C270   1.263       .  A
O268       Al269   1.928       .  S
Al269       O277   1.929       .  S
Al269       O279   1.866       .  S
Al269       O278   1.762       .  S
C270        O283   1.252       .  A
C270        C602   1.487       .  S
O271        C281   1.272       .  A
O271       Al273   1.953       .  S
O272        C285   1.274       .  A
O272       Al282   2.001       .  S
Al273       O286   1.871       .  S
Al273       O283   1.878       .  S
Al273       O278   1.773       .  S
O274        C281   1.259       .  A
O274       Al282   1.859       .  S
O275        C284   1.281       .  A
O275       Al282   1.950       .  S
O276       Al282   1.947       .  S
O277        C284   1.269       .  A
O278       Al282   1.791       .  S
O279        C280   1.259       .  A
C280        C626   1.482       .  S
C281        C650   1.475       .  S
C284        C833   1.510       .  S
C285        O286   1.249       .  A
C285       C1457   1.506       .  S
O287        C302   1.278       .  A
O287       Al295   1.951   1_565  S
C288        O298   1.254       .  A
C288        O289   1.260       .  A
C288        C554   1.483       .  S
O289       Al291   1.918       .  S
O290        C292   1.259   1_545  A
O290       Al291   1.870       .  S
Al291       O299   1.862       .  S
Al291       O301   1.906   1_545  S
Al291       O300   1.762       .  S
C292        O305   1.271       .  A
C292        C569   1.466       .  S
O293        C303   1.259       .  A
O293       Al295   1.863       .  S
O294        C307   1.252       .  A
O294       Al304   1.874       .  S
Al295       O308   1.993       .  S
Al295       O305   1.953   1_545  S
Al295       O300   1.789       .  S
O296        C303   1.270       .  A
O296       Al304   1.947       .  S
O297        C306   1.271       .  A
O297       Al304   1.946       .  S
O298       Al304   1.883       .  S
O299        C306   1.259       .  A
O300       Al304   1.772       .  S
O301        C302   1.264       .  A
C302        C713   1.502       .  S
C303        C617   1.480       .  S
C306        C641   1.479       .  S
C307        O308   1.275       .  A
C307       C1346   1.502       .  S
O309        C324   1.267       .  A
O309       Al317   1.906       .  S
C310        O320   1.260       .  A
C310        O311   1.257       .  A
C310        C593   1.458   1_655  S
O311       Al313   1.877       .  S
O312        C314   1.255       .  A
O312       Al313   1.913       .  S
Al313       O321   1.890       .  S
Al313       O323   1.921       .  S
Al313       O322   1.773       .  S
C314        O327   1.253       .  A
C314        C473   1.470       .  S
O315        C325   1.270       .  A
O315       Al317   1.914       .  S
O316        C329   1.273       .  A
O316       Al326   1.954       .  S
Al317       O330   1.861       .  S
Al317       O327   1.898       .  S
Al317       O322   1.780       .  S
O318        C325   1.267       .  A
O318       Al326   1.915       .  S
O319        C328   1.271       .  A
O319       Al326   1.953       .  S
O320       Al326   1.912       .  S
O321        C328   1.260       .  A
O322       Al326   1.793       .  S
O323        C324   1.269       .  A
C324        C506   1.489       .  S
C325        C530   1.477       .  S
C328        C698   1.506   1_655  S
C329        O330   1.252       .  A
C329       C1265   1.477       .  S
O331        C346   1.279       .  A
O331       Al339   1.949       .  S
C332        O342   1.252       .  A
C332        O333   1.262       .  A
C332        C578   1.471       .  S
O333       Al335   1.923       .  S
O334        C336   1.258       .  A
O334       Al335   1.871       .  S
Al335       O343   1.858       .  S
Al335       O345   1.916       .  S
Al335       O344   1.761       .  S
C336        O349   1.273       .  A
C336        C449   1.473       .  S
O337        C347   1.262       .  A
O337       Al339   1.875       .  S
O338        C351   1.250       .  A
O338       Al348   1.871       .  S
Al339       O352   2.003       .  S
Al339       O349   1.967       .  S
Al339       O344   1.790       .  S
O340        C347   1.273       .  A
O340       Al348   1.955       .  S
O341        C350   1.271       .  A
O341       Al348   1.957       .  S
O342       Al348   1.874       .  S
O343        C350   1.257       .  A
O344       Al348   1.769       .  S
O345        C346   1.267       .  A
C346       C1025   1.501       .  S
C347        C497   1.482       .  S
C350        C521   1.478       .  S
C351        O352   1.276       .  A
C351       C1130   1.507       .  S
O353        C368   1.266       .  A
O353       Al361   1.913       .  S
C354        O364   1.260       .  A
C354        O355   1.254       .  A
C354        C482   1.464       .  S
O355       Al357   1.877   1_565  S
O356        C358   1.258       .  A
O356       Al357   1.906       .  S
Al357       O365   1.888   1_545  S
Al357       O367   1.906       .  S
Al357       O366   1.778       .  S
C358        O371   1.254       .  A
C358        C674   1.477       .  S
O359        C369   1.267       .  A
O359       Al361   1.917       .  S
O360        C373   1.277       .  A
O360       Al370   1.961       .  S
Al361       O374   1.853       .  S
Al361       O371   1.894       .  S
Al361       O366   1.782       .  S
O362        C369   1.265       .  A
O362       Al370   1.907       .  S
O363        C372   1.275       .  A
O363       Al370   1.968   1_565  S
O364       Al370   1.923   1_565  S
O365        C372   1.263       .  A
O366       Al370   1.790       .  S
O367        C368   1.264       .  A
C368        C401   1.484       .  S
C369        C425   1.472       .  S
C372        C962   1.507       .  S
C373        O374   1.251       .  A
C373       C1178   1.483       .  S
O375        C390   1.281       .  A
O375       Al383   1.940       .  S
C376        O386   1.249       .  A
C376        O377   1.260       .  A
C376        C458   1.483       .  S
O377       Al379   1.920       .  S
O378        C380   1.255       .  A
O378       Al379   1.879       .  S
Al379       O387   1.856       .  S
Al379       O389   1.931       .  S
Al379       O388   1.767       .  S
C380        O393   1.264       .  A
C380        C545   1.465   1_655  S
O381        C391   1.263       .  A
O381       Al383   1.870       .  S
O382        C395   1.251       .  A
O382       Al392   1.890       .  S
Al383       O396   1.979       .  S
Al383       O393   1.945       .  S
Al383       O388   1.796       .  S
O384        C391   1.276       .  A
O384       Al392   1.952       .  S
O385        C394   1.271       .  A
O385       Al392   1.948       .  S
O386       Al392   1.868       .  S
O387        C394   1.256       .  A
O388       Al392   1.777       .  S
O389        C390   1.271       .  A
C390        C809   1.498   1_655  S
C391        C410   1.480       .  S
C394        C434   1.479       .  S
C395        O396   1.268       .  A
C395       C1562   1.505       .  S
C397        C398   1.399       .  A
C397        C402   1.395       .  A
C397        H407   1.083       .  S
C398        C403   1.483       .  S
C398        C399   1.412       .  A
C399        C400   1.403       .  A
C399        O404   1.372       .  S
C400        C401   1.406       .  A
C400        H405   1.083       .  S
C401        C402   1.415       .  A
C402        O406   1.372       .  S
C403        C408   1.411       .  A
C403        C412   1.400       .  A
O404        H420   0.992       .  S
O406        H417   0.992       .  S
C408        C409   1.403   1_556  A
C408        O413   1.372       .  S
C409        C410   1.403       .  A
C409        H414   1.083       .  S
C410        C411   1.414       .  A
C411        C412   1.394   1_554  A
C411        O415   1.372       .  S
C412        H416   1.084       .  S
O413        H418   0.992       .  S
O415        H419   0.992       .  S
C421        C422   1.408       .  A
C421        C426   1.403       .  A
C421        H431   1.083       .  S
C422        C427   1.485       .  S
C422        C423   1.407       .  A
C423        C424   1.396       .  A
C423        O428   1.372       .  S
C424        C425   1.403       .  A
C424        H429   1.083       .  S
C425        C426   1.406       .  A
C426        O430   1.371       .  S
C427        C432   1.405       .  A
C427        C436   1.409       .  A
O428        H444   0.992       .  S
O430        H441   0.991       .  S
C432        C433   1.396       .  A
C432        O437   1.372       .  S
C433        C434   1.408       .  A
C433        H438   1.084       .  S
C434        C435   1.406       .  A
C435        C436   1.403       .  A
C435        O439   1.371       .  S
C436        H440   1.083       .  S
O437        H442   0.992       .  S
O439        H443   0.992       .  S
C445        C446   1.400       .  A
C445        C450   1.396       .  A
C445        H455   1.084       .  S
C446        C451   1.476       .  S
C446        C447   1.407       .  A
C447        C448   1.403       .  A
C447        O452   1.372       .  S
C448        C449   1.404       .  A
C448        H453   1.084       .  S
C449        C450   1.410       .  A
C450        O454   1.372       .  S
C451        C456   1.408       .  A
C451        C460   1.398       .  A
O452        H468   0.992       .  S
O454        H465   0.991       .  S
C456        C457   1.398       .  A
C456        O461   1.372       .  S
C457        C458   1.402   1_565  A
C457        H462   1.083       .  S
C458        C459   1.418       .  A
C459        C460   1.402   1_545  A
C459        O463   1.372       .  S
C460        H464   1.084       .  S
O461        H466   0.992       .  S
O463        H467   0.992       .  S
C469        C470   1.407       .  A
C469        C474   1.395       .  A
C469        H479   1.083       .  S
C470        C475   1.491       .  S
C470        C471   1.413       .  A
C471        C472   1.404       .  A
C471        O476   1.371       .  S
C472        C473   1.402       .  A
C472        H477   1.084       .  S
C473        C474   1.405       .  A
C474        O478   1.372       .  S
C475        C480   1.413       .  A
C475        C484   1.404       .  A
O476        H492   0.991       .  S
O478        H489   0.992       .  S
C480        C481   1.402       .  A
C480        O485   1.374       .  S
C481        C482   1.399       .  A
C481        H486   1.084       .  S
C482        C483   1.406       .  A
C483        C484   1.401       .  A
C483        O487   1.372   1_565  S
C484        H488   1.083       .  S
O485        H490   0.992       .  S
O487        H491   0.990       .  S
C493        C494   1.406       .  A
C493        C498   1.402   1_556  A
C493        H503   1.084       .  S
C494        C499   1.484       .  S
C494        C495   1.406       .  A
C495        C496   1.399   1_556  A
C495        O500   1.372       .  S
C496        C497   1.407       .  A
C496        H501   1.084       .  S
C497        C498   1.409       .  A
C498        O502   1.371       .  S
C499        C504   1.406       .  A
C499        C508   1.405       .  A
O500        H516   0.992       .  S
O502        H513   0.992       .  S
C504        C505   1.396       .  A
C504        O509   1.372       .  S
C505        C506   1.407       .  A
C505        H510   1.083       .  S
C506        C507   1.414       .  A
C507        C508   1.405       .  A
C507        O511   1.371       .  S
C508        H512   1.083       .  S
O509        H514   0.992       .  S
O511        H515   0.992       .  S
C517        C518   1.408       .  A
C517        C522   1.406       .  A
C517        H527   1.083       .  S
C518        C523   1.482       .  S
C518        C519   1.405       .  A
C519        C520   1.393       .  A
C519        O524   1.372       .  S
C520        C521   1.406       .  A
C520        H525   1.084       .  S
C521        C522   1.408       .  A
C522        O526   1.371       .  S
C523        C528   1.405       .  A
C523        C532   1.406       .  A
O524        H540   0.992       .  S
O526        H537   0.992       .  S
C528        C529   1.399       .  A
C528        O533   1.372       .  S
C529        C530   1.407       .  A
C529        H534   1.083       .  S
C530        C531   1.408       .  A
C531        C532   1.401       .  A
C531        O535   1.372       .  S
C532        H536   1.084       .  S
O533        H538   0.992       .  S
O535        H539   0.992       .  S
C541        C542   1.402       .  A
C541        C546   1.396       .  A
C541        H551   1.084       .  S
C542        C547   1.475       .  S
C542        C543   1.408       .  A
C543        C544   1.399       .  A
C543        O548   1.372       .  S
C544        C545   1.402       .  A
C544        H549   1.084       .  S
C545        C546   1.407       .  A
C546        O550   1.372   1_455  S
C547        C552   1.407       .  A
C547        C556   1.399       .  A
O548        H564   0.992       .  S
O550        H561   0.991       .  S
C552        C553   1.397       .  A
C552        O557   1.372       .  S
C553        C554   1.406       .  A
C553        H558   1.083       .  S
C554        C555   1.415       .  A
C555        C556   1.399       .  A
C555        O559   1.371       .  S
C556        H560   1.084       .  S
O557        H562   0.992       .  S
O559        H563   0.992       .  S
C565        C566   1.399       .  A
C565        C570   1.394       .  A
C565        H575   1.084       .  S
C566        C571   1.468       .  S
C566        C567   1.406       .  A
C567        C568   1.400       .  A
C567        O572   1.372       .  S
C568        C569   1.403       .  A
C568        H573   1.084       .  S
C569        C570   1.409       .  A
C570        O574   1.372       .  S
C571        C576   1.406       .  A
C571        C580   1.398   1_455  A
O572        H588   0.992       .  S
O574        H585   0.992       .  S
C576        C577   1.394   1_455  A
C576        O581   1.372       .  S
C577        C578   1.400       .  A
C577        H582   1.084       .  S
C578        C579   1.414       .  A
C579        C580   1.400       .  A
C579        O583   1.372       .  S
C580        H584   1.084   1_655  S
O581        H586   0.992       .  S
O583        H587   0.992       .  S
C589        C590   1.404       .  A
C589        C594   1.400       .  A
C589        H599   1.084       .  S
C590        C595   1.479       .  S
C590        C591   1.408       .  A
C591        C592   1.399       .  A
C591        O596   1.373       .  S
C592        C593   1.400       .  A
C592        H597   1.084   1_455  S
C593        C594   1.406       .  A
C594        O598   1.372       .  S
C595        C600   1.409       .  A
C595        C604   1.399       .  A
O596        H612   0.992       .  S
O598        H609   0.991       .  S
C600        C601   1.397       .  A
C600        O605   1.372       .  S
C601        C602   1.404   1_565  A
C601        H606   1.083       .  S
C602        C603   1.418   1_545  A
C603        C604   1.402       .  A
C603        O607   1.372   1_565  S
C604        H608   1.084       .  S
O605        H610   0.992       .  S
O607        H611   0.992       .  S
C613        C614   1.406       .  A
C613        C618   1.402   1_556  A
C613        H623   1.083       .  S
C614        C619   1.480       .  S
C614        C615   1.405       .  A
C615        C616   1.393   1_556  A
C615        O620   1.372       .  S
C616        C617   1.407       .  A
C616        H621   1.084       .  S
C617        C618   1.409       .  A
C618        O622   1.371       .  S
C619        C624   1.405       .  A
C619        C628   1.405       .  A
O620        H636   0.992       .  S
O622        H633   0.991       .  S
C624        C625   1.394       .  A
C624        O629   1.372       .  S
C625        C626   1.407       .  A
C625        H630   1.083       .  S
C626        C627   1.412       .  A
C627        C628   1.401       .  A
C627        O631   1.371       .  S
C628        H632   1.084       .  S
O629        H634   0.992       .  S
O631        H635   0.992       .  S
C637        C638   1.404       .  A
C637        C642   1.402       .  A
C637        H647   1.084       .  S
C638        C643   1.471       .  S
C638        C639   1.401       .  A
C639        C640   1.393       .  A
C639        O644   1.372       .  S
C640        C641   1.408       .  A
C640        H645   1.084       .  S
C641        C642   1.411       .  A
C642        O646   1.371       .  S
C643        C648   1.407       .  A
C643        C652   1.397       .  A
O644        H660   0.992       .  S
O646        H657   0.992       .  S
C648        C649   1.403       .  A
C648        O653   1.372       .  S
C649        C650   1.404       .  A
C649        H654   1.084       .  S
C650        C651   1.413       .  A
C651        C652   1.393       .  A
C651        O655   1.373       .  S
C652        H656   1.084       .  S
O653        H658   0.992       .  S
O655        H659   0.992       .  S
C661        C662   1.404       .  A
C661        C666   1.395       .  A
C661        H671   1.084       .  S
C662        C667   1.481       .  S
C662        C663   1.408       .  A
C663        C664   1.401       .  A
C663        O668   1.374       .  S
C664        C665   1.402       .  A
C664        H669   1.084       .  S
C665        C666   1.406       .  A
C666        O670   1.371       .  S
C667        C672   1.413   1_455  A
C667        C676   1.400   1_455  A
O668        H684   0.992       .  S
O670        H681   0.991       .  S
C672        C673   1.399       .  A
C672        O677   1.371   1_655  S
C673        C674   1.402       .  A
C673        H678   1.084       .  S
C674        C675   1.414       .  A
C675        C676   1.395       .  A
C675        O679   1.372       .  S
C676        H680   1.084   1_655  S
O677        H682   0.992       .  S
O679        H683   0.991       .  S
C685        C686   1.406       .  A
C685        C690   1.405       .  A
C685        H695   1.083       .  S
C686        C691   1.509       .  S
C686        C687   1.416       .  A
C687        C688   1.415       .  A
C687        O692   1.373       .  S
C688        C689   1.408       .  A
C688        H693   1.084       .  S
C689        C690   1.415       .  A
C690        O694   1.373       .  S
C691        C696   1.415       .  A
C691        C700   1.405       .  A
O692        H708   0.992       .  S
O694        H705   0.992       .  S
C696        C697   1.414       .  A
C696        O701   1.373       .  S
C697        C698   1.409       .  A
C697        H702   1.083       .  S
C698        C699   1.418       .  A
C699        C700   1.405       .  A
C699        O703   1.371       .  S
C700        H704   1.083       .  S
O701        H706   0.992       .  S
O703        H707   0.992   1_455  S
C709        C710   1.414       .  A
C709        C714   1.415       .  A
C709        H719   1.083       .  S
C710        C715   1.507       .  S
C710        C711   1.408       .  A
C711        C712   1.402       .  A
C711        O716   1.372       .  S
C712        C713   1.411       .  A
C712        H717   1.084       .  S
C713        C714   1.411       .  A
C714        O718   1.371       .  S
C715        C720   1.412       .  A
C715        C724   1.410       .  A
O716        H732   0.991       .  S
O718        H729   0.991       .  S
C720        C721   1.408       .  A
C720        O725   1.371       .  S
C721        C722   1.407       .  A
C721        H726   1.084       .  S
C722        C723   1.409       .  A
C723        C724   1.408       .  A
C723        O727   1.372       .  S
C724        H728   1.083       .  S
O725        H730   0.992       .  S
O727        H731   0.992       .  S
C733        C734   1.400       .  A
C733        C738   1.397       .  A
C733        H743   1.084       .  S
C734        C739   1.484       .  S
C734        C735   1.410       .  A
C735        C736   1.405       .  A
C735        O740   1.371       .  S
C736        C737   1.405       .  A
C736        H741   1.083       .  S
C737        C738   1.414       .  A
C738        O742   1.372       .  S
C739        C744   1.407       .  A
C739        C748   1.401       .  A
O740        H756   0.992       .  S
O742        H753   0.992       .  S
C744        C745   1.404       .  A
C744        O749   1.372       .  S
C745        C746   1.409       .  A
C745        H750   1.083       .  S
C746        C747   1.416       .  A
C747        C748   1.400       .  A
C747        O751   1.371       .  S
C748        H752   1.084       .  S
O749        H754   0.992       .  S
O751        H755   0.992       .  S
C757        C758   1.407       .  A
C757        C762   1.404       .  A
C757        H767   1.083       .  S
C758        C763   1.484       .  S
C758        C759   1.405       .  A
C759        C760   1.397       .  A
C759        O764   1.372       .  S
C760        C761   1.409       .  A
C760        H765   1.083       .  S
C761        C762   1.409       .  A
C762        O766   1.371       .  S
C763        C768   1.405       .  A
C763        C772   1.408       .  A
O764        H780   0.992       .  S
O766        H777   0.991       .  S
C768        C769   1.397       .  A
C768        O773   1.372       .  S
C769        C770   1.405   1_554  A
C769        H774   1.084   1_554  S
C770        C771   1.406       .  A
C771        C772   1.404   1_556  A
C771        O775   1.371       .  S
C772        H776   1.083       .  S
O773        H778   0.992       .  S
O775        H779   0.992       .  S
C781        C782   1.407       .  A
C781        C786   1.393       .  A
C781        H791   1.084       .  S
C782        C787   1.479       .  S
C782        C783   1.407       .  A
C783        C784   1.400       .  A
C783        O788   1.371       .  S
C784        C785   1.403       .  A
C784        H789   1.080       .  S
C785        C786   1.401       .  A
C786        O790   1.372       .  S
C787        C792   1.411       .  A
C787        C796   1.404       .  A
O788        H804   0.992       .  S
O790        H801   0.992       .  S
C792        C793   1.393       .  A
C792        O797   1.372       .  S
C793        C794   1.397       .  A
C793        H798   1.084       .  S
C794        C795   1.406       .  A
C795        C796   1.399       .  A
C795        O799   1.371       .  S
C796        H800   1.083       .  S
O797        H802   0.992       .  S
O799        H803   0.991       .  S
C805        C806   1.405       .  A
C805        C810   1.407       .  A
C805        H815   1.083       .  S
C806        C811   1.508       .  S
C806        C807   1.417       .  A
C807        C808   1.411       .  A
C807        O812   1.371       .  S
C808        C809   1.405       .  A
C808        H813   1.083       .  S
C809        C810   1.416       .  A
C810        O814   1.372       .  S
C811        C816   1.414       .  A
C811        C820   1.408       .  A
O812        H828   0.992       .  S
O814        H825   0.991       .  S
C816        C817   1.409       .  A
C816        O821   1.371       .  S
C817        C818   1.407       .  A
C817        H822   1.084       .  S
C818        C819   1.411       .  A
C819        C820   1.409       .  A
C819        O823   1.372       .  S
C820        H824   1.083       .  S
O821        H826   0.992       .  S
O823        H827   0.991       .  S
C829        C830   1.406       .  A
C829        C834   1.409       .  A
C829        H839   1.084       .  S
C830        C835   1.515       .  S
C830        C831   1.417       .  A
C831        C832   1.418       .  A
C831        O836   1.372       .  S
C832        C833   1.408       .  A
C832        H837   1.083       .  S
C833        C834   1.419       .  A
C834        O838   1.372       .  S
C835        C840   1.417       .  A
C835        C844   1.407       .  A
O836        H852   0.991       .  S
O838        H849   0.992       .  S
C840        C841   1.415       .  A
C840        O845   1.371       .  S
C841        C842   1.409       .  A
C841        H846   1.083       .  S
C842        C843   1.414       .  A
C843        C844   1.408       .  A
C843        O847   1.372       .  S
C844        H848   1.083       .  S
O845        H850   0.992       .  S
O847        H851   0.992       .  S
C853        C854   1.409       .  A
C853        C858   1.402   1_554  A
C853        H863   1.083       .  S
C854        C859   1.490       .  S
C854        C855   1.410       .  A
C855        C856   1.398   1_554  A
C855        O860   1.372       .  S
C856        C857   1.403       .  A
C856        H861   1.084       .  S
C857        C858   1.404       .  A
C858        O862   1.371       .  S
C859        C864   1.407       .  A
C859        C868   1.408       .  A
O860        H876   0.992       .  S
O862        H873   0.992       .  S
C864        C865   1.399       .  A
C864        O869   1.373       .  S
C865        C866   1.409       .  A
C865        H870   1.083       .  S
C866        C867   1.410       .  A
C867        C868   1.403       .  A
C867        O871   1.371       .  S
C868        H872   1.083       .  S
O869        H874   0.992       .  S
O871        H875   0.992       .  S
C877        C878   1.405       .  A
C877        C882   1.404       .  A
C877        H887   1.083       .  S
C878        C883   1.481       .  S
C878        C879   1.403       .  A
C879        C880   1.396       .  A
C879        O884   1.372       .  S
C880        C881   1.410       .  A
C880        H885   1.083       .  S
C881        C882   1.411       .  A
C882        O886   1.371       .  S
C883        C888   1.405       .  A
C883        C892   1.405       .  A
O884        H900   0.992       .  S
O886        H897   0.992       .  S
C888        C889   1.396       .  A
C888        O893   1.372       .  S
C889        C890   1.407       .  A
C889        H894   1.084       .  S
C890        C891   1.412       .  A
C891        C892   1.404       .  A
C891        O895   1.371       .  S
C892        H896   1.084       .  S
O893        H898   0.992       .  S
O895        H899   0.992       .  S
C901        C902   1.400       .  A
C901        C906   1.394       .  A
C901        H911   1.084       .  S
C902        C907   1.471       .  S
C902        C903   1.407       .  A
C903        C904   1.399       .  A
C903        O908   1.372       .  S
C904        C905   1.402       .  A
C904        H909   1.084       .  S
C905        C906   1.409       .  A
C906        O910   1.372       .  S
C907        C912   1.408       .  A
C907        C916   1.396       .  A
O908        H924   0.992       .  S
O910        H921   0.991       .  S
C912        C913   1.397       .  A
C912        O917   1.372       .  S
C913        C914   1.403       .  A
C913        H918   1.083       .  S
C914        C915   1.417       .  A
C915        C916   1.396       .  A
C915        O919   1.371       .  S
C916        H920   1.084       .  S
O917        H922   0.992       .  S
O919        H923   0.992       .  S
C925        C926   1.405       .  A
C925        C930   1.399       .  A
C925        H935   1.084       .  S
C926        C931   1.480       .  S
C926        C927   1.403       .  A
C927        C928   1.399       .  A
C927        O932   1.371       .  S
C928        C929   1.410       .  A
C928        H933   1.083       .  S
C929        C930   1.411       .  A
C930        O934   1.372       .  S
C931        C936   1.406       .  A
C931        C940   1.405       .  A
O932        H948   0.992       .  S
O934        H945   0.992       .  S
C936        C937   1.398       .  A
C936        O941   1.373       .  S
C937        C938   1.403       .  A
C937        H942   1.084       .  S
C938        C939   1.407       .  A
C939        C940   1.401       .  A
C939        O943   1.373       .  S
C940        H944   1.084       .  S
O941        H946   0.992       .  S
O943        H947   0.992       .  S
C949        C950   1.410       .  A
C949        C954   1.412       .  A
C949        H959   1.083       .  S
C950        C955   1.510       .  S
C950        C951   1.413       .  A
C951        C952   1.407       .  A
C951        O956   1.373       .  S
C952        C953   1.408       .  A
C952        H957   1.084       .  S
C953        C954   1.414       .  A
C954        O958   1.371       .  S
C955        C960   1.411       .  A
C955        C964   1.411       .  A
O956        H972   0.992       .  S
O958        H969   0.991       .  S
C960        C961   1.404       .  A
C960        O965   1.371       .  S
C961        C962   1.411       .  A
C961        H966   1.083       .  S
C962        C963   1.414       .  A
C963        C964   1.414       .  A
C963        O967   1.371       .  S
C964        H968   1.083       .  S
O965        H970   0.992       .  S
O967        H971   0.992       .  S
C973        C974   1.404       .  A
C973        C978   1.399       .  A
C973        H983   1.083       .  S
C974        C979   1.477       .  S
C974        C975   1.407       .  A
C975        C976   1.395       .  A
C975        O980   1.372       .  S
C976        C977   1.403       .  A
C976        H981   1.084       .  S
C977        C978   1.407       .  A
C978        O982   1.372       .  S
C979        C984   1.403       .  A
C979        C988   1.404       .  A
O980        H996   0.992       .  S
O982        H993   0.991       .  S
C984        C985   1.400       .  A
C984        O989   1.372       .  S
C985        C986   1.410       .  A
C985        H990   1.083       .  S
C986        C987   1.410       .  A
C987        C988   1.396       .  A
C987        O991   1.372       .  S
C988        H992   1.084       .  S
O989        H994   0.992       .  S
O991        H995   0.992       .  S
C997        C998   1.408       .  A
C997       C1002   1.403       .  A
C997       H1007   1.084       .  S
C998       C1003   1.479       .  S
C998        C999   1.403       .  A
C999       C1000   1.396       .  A
C999       O1004   1.374       .  S
C1000      C1001   1.406       .  A
C1000      H1005   1.084       .  S
C1001      C1002   1.406       .  A
C1002      O1006   1.371       .  S
C1003      C1008   1.411       .  A
C1003      C1012   1.403       .  A
O1004      H1020   0.992       .  S
O1006      H1017   0.992       .  S
C1008      C1009   1.395       .  A
C1008      O1013   1.372       .  S
C1009      C1010   1.400       .  A
C1009      H1014   1.085       .  S
C1010      C1011   1.407       .  A
C1011      C1012   1.401       .  A
C1011      O1015   1.371       .  S
C1012      H1016   1.084       .  S
O1013      H1018   0.992       .  S
O1015      H1019   0.989       .  S
C1021      C1022   1.413       .  A
C1021      C1026   1.413       .  A
C1021      H1031   1.083       .  S
C1022      C1027   1.507       .  S
C1022      C1023   1.409       .  A
C1023      C1024   1.406       .  A
C1023      O1028   1.371       .  S
C1024      C1025   1.411       .  A
C1024      H1029   1.084       .  S
C1025      C1026   1.410       .  A
C1026      O1030   1.371       .  S
C1027      C1032   1.412       .  A
C1027      C1036   1.408       .  A
O1028      H1044   0.992       .  S
O1030      H1041   0.991       .  S
C1032      C1033   1.411       .  A
C1032      O1037   1.372       .  S
C1033      C1034   1.408       .  A
C1033      H1038   1.084       .  S
C1034      C1035   1.411       .  A
C1035      C1036   1.409       .  A
C1035      O1039   1.371       .  S
C1036      H1040   1.083       .  S
O1037      H1042   0.992       .  S
O1039      H1043   0.991       .  S
C1045      C1046   1.405       .  A
C1045      C1050   1.406       .  A
C1045      H1055   1.083       .  S
C1046      C1051   1.483       .  S
C1046      C1047   1.404       .  A
C1047      C1048   1.397       .  A
C1047      O1052   1.372       .  S
C1048      C1049   1.408       .  A
C1048      H1053   1.084       .  S
C1049      C1050   1.412       .  A
C1050      O1054   1.371       .  S
C1051      C1056   1.403       .  A
C1051      C1060   1.406       .  A
O1052      H1068   0.992       .  S
O1054      H1065   0.992       .  S
C1056      C1057   1.397       .  A
C1056      O1061   1.372       .  S
C1057      C1058   1.410       .  A
C1057      H1062   1.083       .  S
C1058      C1059   1.412       .  A
C1059      C1060   1.407       .  A
C1059      O1063   1.371       .  S
C1060      H1064   1.083       .  S
O1061      H1066   0.992       .  S
O1063      H1067   0.992       .  S
C1069      C1070   1.407       .  A
C1069      C1074   1.403   1_554  A
C1069      H1079   1.084       .  S
C1070      C1075   1.488       .  S
C1070      C1071   1.407       .  A
C1071      C1072   1.400   1_554  A
C1071      O1076   1.373       .  S
C1072      C1073   1.410       .  A
C1072      H1077   1.083       .  S
C1073      C1074   1.410       .  A
C1074      O1078   1.371       .  S
C1075      C1080   1.413       .  A
C1075      C1084   1.401       .  A
O1076      H1092   0.992       .  S
O1078      H1089   0.992       .  S
C1080      C1081   1.405       .  A
C1080      O1085   1.371       .  S
C1081      C1082   1.405       .  A
C1081      H1086   1.084       .  S
C1082      C1083   1.412       .  A
C1083      C1084   1.396       .  A
C1083      O1087   1.372       .  S
C1084      H1088   1.084       .  S
O1085      H1090   0.991       .  S
O1087      H1091   0.992       .  S
C1093      C1094   1.403       .  A
C1093      C1098   1.400       .  A
C1093      H1103   1.083       .  S
C1094      C1099   1.482       .  S
C1094      C1095   1.410       .  A
C1095      C1096   1.398       .  A
C1095      O1100   1.371       .  S
C1096      C1097   1.399       .  A
C1096      H1101   1.084       .  S
C1097      C1098   1.409       .  A
C1098      O1102   1.372       .  S
C1099      C1104   1.407       .  A
C1099      C1108   1.406       .  A
O1100      H1116   0.992       .  S
O1102      H1113   0.991       .  S
C1104      C1105   1.404       .  A
C1104      O1109   1.371       .  S
C1105      C1106   1.404       .  A
C1105      H1110   1.081       .  S
C1106      C1107   1.403       .  A
C1107      C1108   1.396       .  A
C1107      O1111   1.372       .  S
C1108      H1112   1.084       .  S
O1109      H1114   0.992       .  S
O1111      H1115   0.991       .  S
C1117      C1118   1.409       .  A
C1117      C1122   1.414       .  A
C1117      H1127   1.083       .  S
C1118      C1123   1.513       .  S
C1118      C1119   1.412       .  A
C1119      C1120   1.412       .  A
C1119      O1124   1.373       .  S
C1120      C1121   1.413       .  A
C1120      H1125   1.083       .  S
C1121      C1122   1.416       .  A
C1122      O1126   1.371       .  S
C1123      C1128   1.412       .  A
C1123      C1132   1.411       .  A
O1124      H1140   0.992       .  S
O1126      H1137   0.992   1_554  S
C1128      C1129   1.408       .  A
C1128      O1133   1.371       .  S
C1129      C1130   1.412       .  A
C1129      H1134   1.084       .  S
C1130      C1131   1.414       .  A
C1131      C1132   1.414       .  A
C1131      O1135   1.371       .  S
C1132      H1136   1.083       .  S
O1133      H1138   0.992       .  S
O1135      H1139   0.991       .  S
C1141      C1142   1.408       .  A
C1141      C1146   1.409   1_556  A
C1141      H1151   1.083   1_556  S
C1142      C1147   1.510       .  S
C1142      C1143   1.414       .  A
C1143      C1144   1.411   1_455  A
C1143      O1148   1.371       .  S
C1144      C1145   1.407       .  A
C1144      H1149   1.084       .  S
C1145      C1146   1.412   1_656  A
C1146      O1150   1.372   1_455  S
C1147      C1152   1.411       .  A
C1147      C1156   1.412       .  A
O1148      H1164   0.991       .  S
O1150      H1161   0.992       .  S
C1152      C1153   1.409       .  A
C1152      O1157   1.372       .  S
C1153      C1154   1.411       .  A
C1153      H1158   1.084       .  S
C1154      C1155   1.410       .  A
C1155      C1156   1.413       .  A
C1155      O1159   1.370       .  S
C1156      H1160   1.083       .  S
O1157      H1162   0.992   1_556  S
O1159      H1163   0.992       .  S
C1165      C1166   1.413       .  A
C1165      C1170   1.416       .  A
C1165      H1175   1.083       .  S
C1166      C1171   1.510       .  S
C1166      C1167   1.409       .  A
C1167      C1168   1.406       .  A
C1167      O1172   1.372       .  S
C1168      C1169   1.413       .  A
C1168      H1173   1.084       .  S
C1169      C1170   1.411       .  A
C1170      O1174   1.370       .  S
C1171      C1176   1.413       .  A
C1171      C1180   1.408       .  A
O1172      H1188   0.992       .  S
O1174      H1185   0.992       .  S
C1176      C1177   1.412       .  A
C1176      O1181   1.372       .  S
C1177      C1178   1.407       .  A
C1177      H1182   1.084       .  S
C1178      C1179   1.413       .  A
C1179      C1180   1.410       .  A
C1179      O1183   1.373       .  S
C1180      H1184   1.083       .  S
O1181      H1186   0.992       .  S
O1183      H1187   0.992       .  S
C1189      C1190   1.413       .  A
C1189      C1194   1.415   1_455  A
C1189      H1199   1.083       .  S
C1190      C1195   1.516       .  S
C1190      C1191   1.413       .  A
C1191      C1192   1.408   1_455  A
C1191      O1196   1.373       .  S
C1192      C1193   1.411       .  A
C1192      H1197   1.084       .  S
C1193      C1194   1.413       .  A
C1194      O1198   1.371       .  S
C1195      C1200   1.414       .  A
C1195      C1204   1.411       .  A
O1196      H1212   0.992       .  S
O1198      H1209   0.991       .  S
C1200      C1201   1.408       .  A
C1200      O1205   1.371       .  S
C1201      C1202   1.412       .  A
C1201      H1206   1.083       .  S
C1202      C1203   1.415       .  A
C1203      C1204   1.414       .  A
C1203      O1207   1.371       .  S
C1204      H1208   1.083       .  S
O1205      H1210   0.992       .  S
O1207      H1211   0.992       .  S
C1213      C1214   1.406       .  A
C1213      C1218   1.401       .  A
C1213      H1223   1.083       .  S
C1214      C1219   1.483       .  S
C1214      C1215   1.406       .  A
C1215      C1216   1.397       .  A
C1215      O1220   1.372       .  S
C1216      C1217   1.407       .  A
C1216      H1221   1.084       .  S
C1217      C1218   1.409       .  A
C1218      O1222   1.371       .  S
C1219      C1224   1.407       .  A
C1219      C1228   1.408       .  A
O1220      H1236   0.992       .  S
O1222      H1233   0.992       .  S
C1224      C1225   1.398       .  A
C1224      O1229   1.373       .  S
C1225      C1226   1.404       .  A
C1225      H1230   1.084       .  S
C1226      C1227   1.404       .  A
C1227      C1228   1.402       .  A
C1227      O1231   1.371       .  S
C1228      H1232   1.083       .  S
O1229      H1234   0.992       .  S
O1231      H1235   0.992       .  S
C1237      C1238   1.405       .  A
C1237      C1242   1.405       .  A
C1237      H1247   1.084       .  S
C1238      C1243   1.479       .  S
C1238      C1239   1.404       .  A
C1239      C1240   1.397       .  A
C1239      O1244   1.372       .  S
C1240      C1241   1.407       .  A
C1240      H1245   1.084       .  S
C1241      C1242   1.410       .  A
C1242      O1246   1.371       .  S
C1243      C1248   1.402       .  A
C1243      C1252   1.406       .  A
O1244      H1260   0.992       .  S
O1246      H1257   0.991       .  S
C1248      C1249   1.393       .  A
C1248      O1253   1.372       .  S
C1249      C1250   1.410       .  A
C1249      H1254   1.083       .  S
C1250      C1251   1.413       .  A
C1251      C1252   1.408       .  A
C1251      O1255   1.371       .  S
C1252      H1256   1.083       .  S
O1253      H1258   0.992       .  S
O1255      H1259   0.992       .  S
C1261      C1262   1.407       .  A
C1261      C1266   1.407       .  A
C1261      H1271   1.083       .  S
C1262      C1267   1.502       .  S
C1262      C1263   1.412       .  A
C1263      C1264   1.406       .  A
C1263      O1268   1.372       .  S
C1264      C1265   1.407       .  A
C1264      H1269   1.084       .  S
C1265      C1266   1.410       .  A
C1266      O1270   1.371       .  S
C1267      C1272   1.416       .  A
C1267      C1276   1.402       .  A
O1268      H1284   0.992       .  S
O1270      H1281   0.991       .  S
C1272      C1273   1.412       .  A
C1272      O1277   1.371       .  S
C1273      C1274   1.405       .  A
C1273      H1278   1.083       .  S
C1274      C1275   1.416       .  A
C1275      C1276   1.405       .  A
C1275      O1279   1.373       .  S
C1276      H1280   1.083       .  S
O1277      H1282   0.992       .  S
O1279      H1283   0.992       .  S
C1285      C1286   1.408       .  A
C1285      C1290   1.412       .  A
C1285      H1295   1.083       .  S
C1286      C1291   1.510       .  S
C1286      C1287   1.412       .  A
C1287      C1288   1.410       .  A
C1287      O1292   1.373       .  S
C1288      C1289   1.411       .  A
C1288      H1293   1.083       .  S
C1289      C1290   1.416       .  A
C1290      O1294   1.371       .  S
C1291      C1296   1.411       .  A
C1291      C1300   1.412       .  A
O1292      H1308   0.992       .  S
O1294      H1305   0.992       .  S
C1296      C1297   1.403       .  A
C1296      O1301   1.371       .  S
C1297      C1298   1.410       .  A
C1297      H1302   1.084       .  S
C1298      C1299   1.414       .  A
C1299      C1300   1.415       .  A
C1299      O1303   1.371       .  S
C1300      H1304   1.083       .  S
O1301      H1306   0.992       .  S
O1303      H1307   0.992       .  S
C1309      C1310   1.402       .  A
C1309      C1314   1.395       .  A
C1309      H1319   1.084       .  S
C1310      C1315   1.476       .  S
C1310      C1311   1.407       .  A
C1311      C1312   1.401       .  A
C1311      O1316   1.372       .  S
C1312      C1313   1.404       .  A
C1312      H1317   1.084       .  S
C1313      C1314   1.408       .  A
C1314      O1318   1.372       .  S
C1315      C1320   1.408       .  A
C1315      C1324   1.399       .  A
O1316      H1332   0.992       .  S
O1318      H1329   0.991       .  S
C1320      C1321   1.394       .  A
C1320      O1325   1.372       .  S
C1321      C1322   1.403       .  A
C1321      H1326   1.083       .  S
C1322      C1323   1.418       .  A
C1323      C1324   1.402       .  A
C1323      O1327   1.372       .  S
C1324      H1328   1.084       .  S
O1325      H1330   0.992       .  S
O1327      H1331   0.992       .  S
C1333      C1334   1.411       .  A
C1333      C1338   1.414       .  A
C1333      H1343   1.083       .  S
C1334      C1339   1.511       .  S
C1334      C1335   1.411       .  A
C1335      C1336   1.409       .  A
C1335      O1340   1.373       .  S
C1336      C1337   1.411       .  A
C1336      H1341   1.083       .  S
C1337      C1338   1.413       .  A
C1338      O1342   1.371       .  S
C1339      C1344   1.413       .  A
C1339      C1348   1.410       .  A
O1340      H1356   0.992       .  S
O1342      H1353   0.992       .  S
C1344      C1345   1.408       .  A
C1344      O1349   1.371       .  S
C1345      C1346   1.409       .  A
C1345      H1350   1.084       .  S
C1346      C1347   1.415       .  A
C1347      C1348   1.413       .  A
C1347      O1351   1.371       .  S
C1348      H1352   1.083       .  S
O1349      H1354   0.992       .  S
O1351      H1355   0.991       .  S
C1357      C1358   1.399       .  A
C1357      C1362   1.394       .  A
C1357      H1367   1.084       .  S
C1358      C1363   1.481       .  S
C1358      C1359   1.414       .  A
C1359      C1360   1.403   1_556  A
C1359      O1364   1.373       .  S
C1360      C1361   1.401   1_554  A
C1360      H1365   1.084       .  S
C1361      C1362   1.413       .  A
C1362      O1366   1.372       .  S
C1363      C1368   1.408       .  A
C1363      C1372   1.405       .  A
O1364      H1380   0.992       .  S
O1366      H1377   0.991       .  S
C1368      C1369   1.402       .  A
C1368      O1373   1.374       .  S
C1369      C1370   1.402       .  A
C1369      H1374   1.084       .  S
C1370      C1371   1.404       .  A
C1371      C1372   1.395       .  A
C1371      O1375   1.372       .  S
C1372      H1376   1.084       .  S
O1373      H1378   0.992       .  S
O1375      H1379   0.992       .  S
C1381      C1382   1.407       .  A
C1381      C1386   1.405       .  A
C1381      H1391   1.083       .  S
C1382      C1387   1.510       .  S
C1382      C1383   1.419       .  A
C1383      C1384   1.412       .  A
C1383      O1388   1.371       .  S
C1384      C1385   1.404       .  A
C1384      H1389   1.083       .  S
C1385      C1386   1.412       .  A
C1386      O1390   1.372       .  S
C1387      C1392   1.413   1_556  A
C1387      C1396   1.411       .  A
O1388      H1404   0.991       .  S
O1390      H1401   0.991       .  S
C1392      C1393   1.407       .  A
C1392      O1397   1.372       .  S
C1393      C1394   1.409   1_554  A
C1393      H1398   1.084       .  S
C1394      C1395   1.410       .  A
C1395      C1396   1.410       .  A
C1395      O1399   1.371       .  S
C1396      H1400   1.083       .  S
O1397      H1402   0.992       .  S
O1399      H1403   0.992       .  S
C1405      C1406   1.407       .  A
C1405      C1410   1.405       .  A
C1405      H1415   1.083       .  S
C1406      C1411   1.488       .  S
C1406      C1407   1.409       .  A
C1407      C1408   1.394       .  A
C1407      O1412   1.372       .  S
C1408      C1409   1.406       .  A
C1408      H1413   1.084       .  S
C1409      C1410   1.412       .  A
C1410      O1414   1.371       .  S
C1411      C1416   1.408       .  A
C1411      C1420   1.408       .  A
O1412      H1428   0.992       .  S
O1414      H1425   0.992       .  S
C1416      C1417   1.398       .  A
C1416      O1421   1.372       .  S
C1417      C1418   1.406       .  A
C1417      H1422   1.084       .  S
C1418      C1419   1.408       .  A
C1419      C1420   1.401       .  A
C1419      O1423   1.371       .  S
C1420      H1424   1.083       .  S
O1421      H1426   0.992       .  S
O1423      H1427   0.992       .  S
C1429      C1430   1.407       .  A
C1429      C1434   1.403       .  A
C1429      H1439   1.083       .  S
C1430      C1435   1.489       .  S
C1430      C1431   1.408       .  A
C1431      C1432   1.399       .  A
C1431      O1436   1.372       .  S
C1432      C1433   1.408       .  A
C1432      H1437   1.083       .  S
C1433      C1434   1.407       .  A
C1434      O1438   1.371       .  S
C1435      C1440   1.409       .  A
C1435      C1444   1.409       .  A
O1436      H1452   0.992       .  S
O1438      H1449   0.992       .  S
C1440      C1441   1.397       .  A
C1440      O1445   1.372       .  S
C1441      C1442   1.405       .  A
C1441      H1446   1.084       .  S
C1442      C1443   1.407       .  A
C1443      C1444   1.404       .  A
C1443      O1447   1.371       .  S
C1444      H1448   1.083       .  S
O1445      H1450   0.992       .  S
O1447      H1451   0.992       .  S
C1453      C1454   1.410       .  A
C1453      C1458   1.417       .  A
C1453      H1463   1.083       .  S
C1454      C1459   1.508       .  S
C1454      C1455   1.410       .  A
C1455      C1456   1.407       .  A
C1455      O1460   1.372       .  S
C1456      C1457   1.412       .  A
C1456      H1461   1.084       .  S
C1457      C1458   1.413       .  A
C1458      O1462   1.372       .  S
C1459      C1464   1.415       .  A
C1459      C1468   1.404       .  A
O1460      H1476   0.992       .  S
O1462      H1473   0.990       .  S
C1464      C1465   1.415       .  A
C1464      O1469   1.371       .  S
C1465      C1466   1.407       .  A
C1465      H1470   1.083       .  S
C1466      C1467   1.418       .  A
C1467      C1468   1.407       .  A
C1467      O1471   1.372       .  S
C1468      H1472   1.083       .  S
O1469      H1474   0.992       .  S
O1471      H1475   0.992       .  S
C1477      C1478   1.401       .  A
C1477      C1482   1.404       .  A
C1477      H1487   1.084       .  S
C1478      C1483   1.478       .  S
C1478      C1479   1.407       .  A
C1479      C1480   1.392       .  A
C1479      O1484   1.372       .  S
C1480      C1481   1.403       .  A
C1480      H1485   1.083       .  S
C1481      C1482   1.418       .  A
C1482      O1486   1.372       .  S
C1483      C1488   1.407       .  A
C1483      C1492   1.403       .  A
O1484      H1500   0.992       .  S
O1486      H1497   0.992       .  S
C1488      C1489   1.400       .  A
C1488      O1493   1.371       .  S
C1489      C1490   1.403       .  A
C1489      H1494   1.084       .  S
C1490      C1491   1.407       .  A
C1491      C1492   1.397       .  A
C1491      O1495   1.372       .  S
C1492      H1496   1.084       .  S
O1493      H1498   0.992       .  S
O1495      H1499   0.992       .  S
C1501      C1502   1.405       .  A
C1501      C1506   1.408       .  A
C1501      H1511   1.084       .  S
C1502      C1507   1.513       .  S
C1502      C1503   1.416       .  A
C1503      C1504   1.417       .  A
C1503      O1508   1.373       .  S
C1504      C1505   1.410       .  A
C1504      H1509   1.083       .  S
C1505      C1506   1.421       .  A
C1506      O1510   1.372       .  S
C1507      C1512   1.416       .  A
C1507      C1516   1.407       .  A
O1508      H1524   0.992       .  S
O1510      H1521   0.992       .  S
C1512      C1513   1.416       .  A
C1512      O1517   1.372       .  S
C1513      C1514   1.408       .  A
C1513      H1518   1.083       .  S
C1514      C1515   1.416       .  A
C1515      C1516   1.408       .  A
C1515      O1519   1.372       .  S
C1516      H1520   1.083       .  S
O1517      H1522   0.992       .  S
O1519      H1523   0.992       .  S
C1525      C1526   1.399       .  A
C1525      C1530   1.401       .  A
C1525      H1535   1.084       .  S
C1526      C1531   1.477       .  S
C1526      C1527   1.408       .  A
C1527      C1528   1.396       .  A
C1527      O1532   1.372       .  S
C1528      C1529   1.404       .  A
C1528      H1533   1.083       .  S
C1529      C1530   1.418       .  A
C1530      O1534   1.371       .  S
C1531      C1536   1.408       .  A
C1531      C1540   1.401       .  A
O1532      H1548   0.992       .  S
O1534      H1545   0.992       .  S
C1536      C1537   1.402       .  A
C1536      O1541   1.372       .  S
C1537      C1538   1.403       .  A
C1537      H1542   1.084       .  S
C1538      C1539   1.409       .  A
C1539      C1540   1.396       .  A
C1539      O1543   1.372       .  S
C1540      H1544   1.084       .  S
O1541      H1546   0.992       .  S
O1543      H1547   0.992       .  S
C1549      C1550   1.413       .  A
C1549      C1554   1.405       .  A
C1549      H1559   1.079       .  S
C1550      C1555   1.532       .  S
C1550      C1551   1.426       .  A
C1551      C1552   1.416       .  A
C1551      O1556   1.370       .  S
C1552      C1553   1.405       .  A
C1552      H1557   1.083       .  S
C1553      C1554   1.409       .  A
C1554      O1558   1.372       .  S
C1555      C1560   1.424       .  A
C1555      C1564   1.418       .  A
O1556      H1572   0.991       .  S
O1558      H1569   0.982   1_554  S
C1560      C1561   1.406       .  A
C1560      O1565   1.371       .  S
C1561      C1562   1.404       .  A
C1561      H1566   1.080       .  S
C1562      C1563   1.409       .  A
C1563      C1564   1.414       .  A
C1563      O1567   1.371       .  S
C1564      H1568   1.080       .  S
O1565      H1570   0.992       .  S
O1567      H1571   0.991       .  S
C1573      C1574   1.404       .  A
C1573      C1578   1.405       .  A
C1573      H1583   1.083       .  S
C1574      C1579   1.483       .  S
C1574      C1575   1.411   1_556  A
C1575      C1576   1.395       .  A
C1575      O1580   1.372       .  S
C1576      C1577   1.398   1_554  A
C1576      H1581   1.084       .  S
C1577      C1578   1.409       .  A
C1578      O1582   1.372       .  S
C1579      C1584   1.407       .  A
C1579      C1588   1.406       .  A
O1580      H1596   0.992       .  S
O1582      H1593   0.992       .  S
C1584      C1585   1.401       .  A
C1584      O1589   1.372       .  S
C1585      C1586   1.404       .  A
C1585      H1590   1.084       .  S
C1586      C1587   1.405       .  A
C1587      C1588   1.398       .  A
C1587      O1591   1.372       .  S
C1588      H1592   1.084       .  S
O1589      H1594   0.992       .  S
O1591      H1595   0.991       .  S
C1597      C1598   1.402       .  A
C1597      C1602   1.403       .  A
C1597      H1607   1.083       .  S
C1598      C1603   1.501       .  S
C1598      C1599   1.415       .  A
C1599      C1600   1.413       .  A
C1599      O1604   1.371       .  S
C1600      C1601   1.406       .  A
C1600      H1605   1.083       .  S
C1601      C1602   1.417       .  A
C1602      O1606   1.372       .  S
C1603      C1608   1.409       .  A
C1603      C1612   1.408       .  A
O1604      H1620   0.991       .  S
O1606      H1617   0.992       .  S
C1608      C1609   1.406   1_556  A
C1608      O1613   1.372   1_556  S
C1609      C1610   1.408   1_554  A
C1609      H1614   1.084       .  S
C1610      C1611   1.411       .  A
C1611      C1612   1.411       .  A
C1611      O1615   1.371       .  S
C1612      H1616   1.083       .  S
O1613      H1618   0.991       .  S
O1615      H1619   0.991       .  S
C1621      C1622   1.397       .  A
C1621      C1626   1.394       .  A
C1621      H1631   1.084       .  S
C1622      C1627   1.485       .  S
C1622      C1623   1.412       .  A
C1623      C1624   1.407       .  A
C1623      O1628   1.371       .  S
C1624      C1625   1.407       .  A
C1624      H1629   1.083       .  S
C1625      C1626   1.419       .  A
C1626      O1630   1.372       .  S
C1627      C1632   1.411       .  A
C1627      C1636   1.400       .  A
O1628      H1644   0.992       .  S
O1630      H1641   0.992       .  S
C1632      C1633   1.405       .  A
C1632      O1637   1.372       .  S
C1633      C1634   1.404       .  A
C1633      H1638   1.083       .  S
C1634      C1635   1.415       .  A
C1635      C1636   1.397       .  A
C1635      O1639   1.372       .  S
C1636      H1640   1.084       .  S
O1637      H1642   0.992       .  S
O1639      H1643   0.992       .  S
C1645      C1646   1.398       .  A
C1645      C1650   1.396       .  A
C1645      H1655   1.084       .  S
C1646      C1651   1.487       .  S
C1646      C1647   1.413       .  A
C1647      C1648   1.408       .  A
C1647      O1652   1.373       .  S
C1648      C1649   1.404       .  A
C1648      H1653   1.083       .  S
C1649      C1650   1.417       .  A
C1650      O1654   1.372       .  S
C1651      C1656   1.404       .  A
C1651      C1660   1.409       .  A
O1652      H1668   0.992       .  S
O1654      H1665   0.992       .  S
C1656      C1657   1.397       .  A
C1656      O1661   1.373       .  S
C1657      C1658   1.408       .  A
C1657      H1662   1.084       .  S
C1658      C1659   1.409       .  A
C1659      C1660   1.407       .  A
C1659      O1663   1.371       .  S
C1660      H1664   1.083       .  S
O1661      H1666   0.992       .  S
O1663      H1667   0.992       .  S
C1669      C1670   1.407       .  A
C1669      C1674   1.405       .  A
C1669      H1679   1.084       .  S
C1670      C1675   1.478       .  S
C1670      C1671   1.403       .  A
C1671      C1672   1.395       .  A
C1671      O1676   1.373       .  S
C1672      C1673   1.407       .  A
C1672      H1677   1.084       .  S
C1673      C1674   1.409       .  A
C1674      O1678   1.371   1_556  S
C1675      C1680   1.406       .  A
C1675      C1684   1.406       .  A
O1676      H1692   0.992       .  S
O1678      H1689   0.992   1_554  S
C1680      C1681   1.389       .  A
C1680      O1685   1.373   1_556  S
C1681      C1682   1.402       .  A
C1681      H1686   1.081       .  S
C1682      C1683   1.408       .  A
C1683      C1684   1.407       .  A
C1683      O1687   1.371       .  S
C1684      H1688   1.083       .  S
O1685      H1690   0.992       .  S
O1687      H1691   0.991       .  S
