geometry optimzed in LAMMPS
_audit_creation_date              2020-12-01 
_audit_creation_method            'lammps2cif' 
_symmetry_space_group_name_H-M    'P1' 
_symmetry_Int_Tables_number       1 
_symmetry_cell_setting            triclinic 
loop_ 
_symmetry_equiv_pos_as_xyz 
  x,y,z 
_cell_length_a                    51.59793178 
_cell_length_b                    51.61887138172242 
_cell_length_c                    27.20587025187162 
_cell_angle_alpha                 90.01032254126842 
_cell_angle_beta                  89.98249147082886 
_cell_angle_gamma                 89.99623032812535 
loop_ 
_atom_site_label 
_atom_site_type_symbol 
_atom_site_fract_x 
_atom_site_fract_y 
_atom_site_fract_z 
_atom_site_charge 
O1          O  0.49442589  0.93375469  0.27150888    -0.83900
O2          O  0.47287185  0.94559281  0.18612349    -0.81000
C3          C  0.45820448  0.95008665  0.15076607     0.99500
O4          O  0.43381244  0.94994960  0.15782207    -0.81000
O5          O  0.42499571  0.89993130  0.18963345    -0.83600
C6          C  0.42329806  0.87971663  0.21513060     1.04100
O7          O  0.42530555  0.88119874  0.26162064    -0.76400
O8          O  0.47512077  0.89620048  0.27115223    -0.76600
C9          C  0.49508010  0.90946393  0.26372009     1.04000
O10         O  0.45850676  0.97001627  0.31857190    -0.83900
O11         O  0.43992292  0.98559979  0.22764139    -0.81000
C12         C  0.41526278  0.98729171  0.22915804     0.99600
O13         O  0.40203796  0.96746582  0.23900152    -0.81000
O14         O  0.38931487  0.91690619  0.26519612    -0.83600
C15         C  0.39037439  0.91510004  0.31196927     1.04000
O16         O  0.41134845  0.91979486  0.33380354    -0.76400
O17         O  0.46302412  0.93143006  0.35089457    -0.76600
C18         C  0.46374553  0.95598265  0.35499363     1.04000
Cr19       Cr  0.46466315  0.95734555  0.25174407     1.93700
Cr20       Cr  0.41424099  0.93352900  0.21592899     1.93200
Cr21       Cr  0.44356357  0.90899896  0.30175941     1.39100
O22         O  0.44053670  0.93361092  0.25716567    -1.21700
O23         O  0.99950026  0.05469653  0.76686835    -0.83900
O24         O  0.02063597  0.04282945  0.67930959    -0.81000
C25         C  0.03622227  0.03910483  0.64469986     0.99500
O26         O  0.06041206  0.03819492  0.65338963    -0.81000
O27         O  0.07173130  0.08713745  0.68462577    -0.83600
C28         C  0.07348602  0.10734013  0.71008091     1.04100
O29         O  0.06975769  0.10626183  0.75625813    -0.76400
O30         O  0.01880584  0.09217557  0.76438375    -0.76600
C31         C  0.99880714  0.07871942  0.75756435     1.04000
O32         O  0.03438624  0.01800824  0.81231159    -0.83900
O33         O  0.05173067  0.00231968  0.72032968    -0.79400
C34         C  0.07614442  0.99971608  0.72292957     0.99600
O35         O  0.08997166  0.01862252  0.73572608    -0.81000
O36         O  0.10523823  0.06841343  0.76150738    -0.83600
C37         C  0.10379006  0.07078125  0.80800701     1.04000
O38         O  0.08229223  0.06780022  0.82918613    -0.76400
O39         O  0.03060182  0.05659774  0.84524620    -0.76600
C40         C  0.02936528  0.03199717  0.84899941     1.04000
Cr41       Cr  0.02838242  0.03095025  0.74557935     1.93700
Cr42       Cr  0.08005491  0.05311710  0.71186735     1.93200
Cr43       Cr  0.05038607  0.07893919  0.79602992     1.39100
O44         O  0.05315909  0.05418737  0.75159275    -1.21700
O45         O  0.18430883  0.74927124  0.52312631    -0.83900
O46         O  0.19867909  0.76811599  0.43627331    -0.81000
C47         C  0.20617301  0.78184263  0.40135853     0.99500
O48         O  0.20711547  0.80628966  0.40683700    -0.81000
O49         O  0.15672675  0.81971084  0.43303520    -0.83600
C50         C  0.13629246  0.82333289  0.45742276     1.04100
O51         O  0.13668522  0.82127845  0.50404343    -0.76400
O52         O  0.14803516  0.77045506  0.51803391    -0.76600
C53         C  0.16052515  0.74989570  0.51138208     1.04000
O54         O  0.22216022  0.78360407  0.56887464    -0.83900
O55         O  0.24027125  0.79846830  0.47882352    -0.81000
C56         C  0.24396780  0.82280877  0.48058988     0.99600
O57         O  0.22506805  0.83785842  0.48742573    -0.81000
O58         O  0.17495693  0.85497015  0.50733678    -0.83600
C59         C  0.17200887  0.85500576  0.55382609     1.04000
O60         O  0.17469656  0.83423431  0.57754566    -0.76400
O61         O  0.18307454  0.78257699  0.60026376    -0.76600
C62         C  0.20760688  0.78107431  0.60553138     1.04000
Cr63       Cr  0.20997624  0.77663533  0.50223100     1.93700
Cr64       Cr  0.19073068  0.82800973  0.46170960     1.93200
Cr65       Cr  0.16242139  0.80197968  0.54755651     1.39100
O66         O  0.18793464  0.80248669  0.50443389    -1.21700
O67         O  0.97169067  0.89309816  0.25723288    -0.83900
O68         O  0.92123213  0.87842693  0.26497438    -0.81000
C69         C  0.91627711  0.88040791  0.31066528     0.99500
O70         O  0.91575105  0.90239991  0.33056438    -0.81000
O71         O  0.92440947  0.95400347  0.34923741    -0.83600
C72         C  0.94812526  0.95438167  0.36152852     1.04100
O73         O  0.96519191  0.94743526  0.33168949    -0.76400
O74         O  0.99058475  0.93077722  0.25141225    -0.76600
C75         C  0.99146098  0.90696417  0.26294127     1.04000
O76         O  0.96128566  0.92304234  0.16803652    -0.83900
O77         O  0.90939632  0.91088884  0.18108525    -0.81000
C78         C  0.88722566  0.90944370  0.20033741     0.99600
O79         O  0.88451430  0.91432091  0.24585301    -0.81000
O80         O  0.89767223  0.96598756  0.25931149    -0.83600
C81         C  0.91047003  0.98618463  0.26849816     1.04000
O82         O  0.93479873  0.98438324  0.27561318    -0.76400
O83         O  0.95645411  0.96327818  0.19253184    -0.76600
C84         C  0.96178895  0.94730219  0.15920169     1.04000
Cr85       Cr  0.94069194  0.90337064  0.22018824     1.93700
Cr86       Cr  0.90754660  0.93387287  0.29351340     1.93200
Cr87       Cr  0.96003126  0.95480999  0.26208819     1.39100
O88         O  0.93594007  0.93074956  0.25801437    -1.21700
O89         O  0.84732428  0.21614701  0.50835885    -0.83900
O90         O  0.85914783  0.16469823  0.50875580    -0.81000
C91         C  0.85722221  0.15903119  0.55413643     0.99500
O92         O  0.83546798  0.15931181  0.57493273    -0.81000
O93         O  0.78435410  0.17023175  0.59580748    -0.83600
C94         C  0.78423380  0.19367970  0.61016697     1.04100
O95         O  0.79169219  0.21134118  0.58199302    -0.76400
O96         O  0.81069609  0.23705566  0.50344069    -0.76600
C97         C  0.83425906  0.23621937  0.51673740     1.04000
O98         O  0.81699351  0.21093752  0.41820825    -0.83900
O99         O  0.82531941  0.15806273  0.42483471    -0.81000
C100        C  0.82573558  0.13524610  0.44126047     0.99600
O101        O  0.82151757  0.13129820  0.48675371    -0.81000
O102        O  0.77124129  0.14703547  0.50219573    -0.83600
C103        C  0.75171314  0.15988156  0.51489084     1.04000
O104        O  0.75411187  0.18398647  0.52335482    -0.76400
O105        O  0.77670546  0.20621098  0.44180711    -0.76600
C106        C  0.79281163  0.21319584  0.40985165     1.04000
Cr107      Cr  0.83527025  0.18728667  0.46737298     1.93700
Cr108      Cr  0.80350524  0.15388691  0.53768858     1.93200
Cr109      Cr  0.78485951  0.20795049  0.51161515     1.39100
O110        O  0.80790015  0.18300460  0.50544227    -1.21700
O111        O  0.14634574  0.27259757  0.51447755    -0.83900
O112        O  0.13518494  0.32385728  0.51827580    -0.81000
C113        C  0.13853881  0.33011892  0.56312746     0.99500
O114        O  0.16088281  0.32917847  0.58138734    -0.81000
O115        O  0.21187006  0.31658531  0.59748996    -0.83600
C116        C  0.21089981  0.29305973  0.61119209     1.04100
O117        O  0.20245072  0.27597433  0.58273186    -0.76400
O118        O  0.18197966  0.25060703  0.50545262    -0.76600
C119        C  0.15869090  0.25193239  0.52040639     1.04000
O120        O  0.17472115  0.27837631  0.42152897    -0.83900
O121        O  0.16689029  0.33072331  0.43142309    -0.81000
C122        C  0.16635986  0.35332341  0.44849321     0.99600
O123        O  0.17311848  0.35726671  0.49290695    -0.81000
O124        O  0.22460466  0.34071596  0.50512335    -0.83600
C125        C  0.24375428  0.32636100  0.51451634     1.04000
O126        O  0.24000715  0.30238264  0.52255329    -0.76400
O127        O  0.21571500  0.28160400  0.44199152    -0.76600
C128        C  0.19867460  0.27698640  0.41023601     1.04000
Cr129      Cr  0.15780312  0.30147778  0.47362276     1.93700
Cr130      Cr  0.19217366  0.33400362  0.54159844     1.93200
Cr131      Cr  0.20853255  0.27941463  0.51238075     1.39100
O132        O  0.18625847  0.30514314  0.50876180    -1.21700
O133        O  0.02586070  0.59737743  0.25410604    -0.83900
O134        O  0.07758404  0.60896086  0.25954870    -0.81000
C135        C  0.08209397  0.60759449  0.30547057     0.99500
O136        O  0.08066340  0.58617193  0.32732710    -0.81000
O137        O  0.06892058  0.53497146  0.34891008    -0.83600
C138        C  0.04501679  0.53508854  0.36058983     1.04100
O139        O  0.02844679  0.54247742  0.33008839    -0.76400
O140        O  0.00520634  0.56060679  0.24833693    -0.76600
C141        C  0.00554579  0.58433870  0.26066338     1.04000
O142        O  0.03401094  0.56598841  0.16562976    -0.83900
O143        O  0.08646837  0.57410689  0.17794235    -0.81000
C144        C  0.10869981  0.57506373  0.19690006     0.99600
O145        O  0.11136522  0.57128086  0.24292688    -0.81000
O146        O  0.09539094  0.52092932  0.25907308    -0.83600
C147        C  0.08187957  0.50142799  0.26941603     1.04000
O148        O  0.05757036  0.50410806  0.27548923    -0.76400
O149        O  0.03747939  0.52581647  0.19091312    -0.76600
C150        C  0.03182931  0.54176341  0.15769628     1.04000
Cr151      Cr  0.05606864  0.58470099  0.21679861     1.93700
Cr152      Cr  0.08719974  0.55367589  0.29207529     1.93200
Cr153      Cr  0.03396492  0.53479860  0.26041281     1.39100
O154        O  0.05914895  0.55769471  0.25619683    -1.21700
O155        O  0.99070334  0.43400912  0.76600398    -0.83900
O156        O  0.96866284  0.44670856  0.67980033    -0.81000
C157        C  0.95312090  0.45169505  0.64579682     0.99500
O158        O  0.92895275  0.45307978  0.65533738    -0.81000
O159        O  0.91729134  0.40359550  0.68491549    -0.83600
C160        C  0.91513916  0.38300324  0.70910278     1.04100
O161        O  0.91981113  0.38315283  0.75511807    -0.76400
O162        O  0.97120661  0.39667462  0.76255349    -0.76600
C163        C  0.99135633  0.40999022  0.75646663     1.04000
O164        O  0.95636011  0.47063705  0.81342331    -0.83900
O165        O  0.93833917  0.48724870  0.72463133    -0.81000
C166        C  0.91419378  0.49042014  0.73114387     0.99600
O167        O  0.90009172  0.47123809  0.74092211    -0.81000
O168        O  0.88472303  0.42114281  0.76392028    -0.83600
C169        C  0.88668243  0.41797892  0.81020641     1.04000
O170        O  0.90840519  0.42077166  0.83062776    -0.76400
O171        O  0.96034138  0.43186857  0.84526971    -0.76600
C172        C  0.96150530  0.45651054  0.84964579     1.04000
Cr173      Cr  0.96173222  0.45811616  0.74660470     1.93700
Cr174      Cr  0.90955212  0.43718958  0.71411403     1.93200
Cr175      Cr  0.93990659  0.40986216  0.79577142     1.39100
O176        O  0.93683417  0.43514780  0.75264345    -1.21700
O177        O  0.35056843  0.71693215  0.01204711    -0.83900
O178        O  0.36120027  0.66588303  0.01008716    -0.81000
C179        C  0.35916863  0.66017740  0.05547375     0.99500
O180        O  0.33725392  0.65964362  0.07554178    -0.81000
O181        O  0.28686288  0.67050639  0.09850586    -0.83600
C182        C  0.28886402  0.69337798  0.11512473     1.04100
O183        O  0.29672010  0.71119736  0.08778492    -0.76400
O184        O  0.31470446  0.73917123  0.01187358    -0.76600
C185        C  0.33837281  0.73699801  0.02369742     1.04000
O186        O  0.31897698  0.71385921  0.92239510    -0.83900
O187        O  0.32657802  0.66110589  0.92604774    -0.81000
C188        C  0.32690493  0.63810655  0.94110899     0.99600
O189        O  0.32246915  0.63337043  0.98625195    -0.81000
O190        O  0.27182869  0.64939925  0.00493454    -0.83600
C191        C  0.25296369  0.66344823  0.01744147     1.04000
O192        O  0.25691809  0.68714515  0.02816726    -0.76400
O193        O  0.27874111  0.71195101  0.94862634    -0.76600
C194        C  0.29480840  0.71771080  0.91565314     1.04000
Cr195      Cr  0.33732789  0.68926906  0.96990430     1.93700
Cr196      Cr  0.30504621  0.65521122  0.03878793     1.93200
Cr197      Cr  0.28819416  0.71055025  0.01801206     1.39100
O198        O  0.30998201  0.68487498  0.00805400    -1.21700
O199        O  0.68621064  0.24844793  0.02122488    -0.83900
O200        O  0.69912441  0.26800159  0.93292047    -0.81000
C201        C  0.70298769  0.28320882  0.89781578     0.99500
O202        O  0.70248419  0.30752874  0.90504645    -0.81000
O203        O  0.65220097  0.31659648  0.93331852    -0.83600
C204        C  0.63171149  0.31951347  0.95753112     1.04100
O205        O  0.63221421  0.31657026  0.00399541    -0.76400
O206        O  0.64797001  0.26634985  0.01644963    -0.76600
C207        C  0.66225535  0.24682915  0.01136298     1.04000
O208        O  0.72080887  0.28589826  0.06609850    -0.83900
O209        O  0.73735487  0.30208351  0.97541664    -0.81000
C210        C  0.73894948  0.32661298  0.97749605     0.99600
O211        O  0.71890214  0.33979254  0.98587356    -0.81000
O212        O  0.66815076  0.35287934  0.00769460    -0.83600
C213        C  0.66562314  0.35241449  0.05419546     1.04000
O214        O  0.66945708  0.33163333  0.07732511    -0.76400
O215        O  0.68205615  0.28058601  0.09742082    -0.76600
C216        C  0.70662256  0.28092117  0.10235894     1.04000
Cr217      Cr  0.70926720  0.27778250  0.99951096     1.93700
Cr218      Cr  0.68539181  0.32748688  0.96096319     1.93200
Cr219      Cr  0.65969637  0.29879540  0.04619497     1.39100
O220        O  0.68491521  0.30153867  0.00259268    -1.21700
O221        O  0.46833639  0.39604269  0.76565827    -0.83900
O222        O  0.41720271  0.38305291  0.76716422    -0.81000
C223        C  0.41040048  0.38559780  0.81198996     0.99500
O224        O  0.41027061  0.40767673  0.83149222    -0.81000
O225        O  0.41880114  0.45965982  0.84906579    -0.83600
C226        C  0.44196647  0.46064336  0.86459538     1.04100
O227        O  0.46020533  0.45284341  0.83818469    -0.76400
O228        O  0.48837830  0.43342524  0.76341089    -0.76600
C229        C  0.48811912  0.40947214  0.77407430     1.04000
O230        O  0.46249573  0.42520201  0.67447934    -0.83900
O231        O  0.41024369  0.41542169  0.68076454    -0.81000
C232        C  0.38750491  0.41356812  0.69689751     0.99600
O233        O  0.38290971  0.41867879  0.74178543    -0.81000
O234        O  0.39639287  0.47027422  0.75433388    -0.83600
C235        C  0.40905461  0.49042748  0.76444402     1.04000
O236        O  0.43303647  0.48857074  0.77468733    -0.76400
O237        O  0.45807595  0.46572856  0.69718559    -0.76600
C238        C  0.46453045  0.44932202  0.66542464     1.04000
Cr239      Cr  0.43930901  0.40695809  0.72443352     1.93700
Cr240      Cr  0.40416846  0.43873856  0.79186266     1.93200
Cr241      Cr  0.45822897  0.45845403  0.76740779     1.39100
O242        O  0.43392715  0.43473112  0.76097952    -1.21700
O243        O  0.30568981  0.23936446  0.01861765    -0.83900
O244        O  0.29340444  0.21859521  0.93221287    -0.81000
C245        C  0.29088091  0.20348158  0.89667437     0.99500
O246        O  0.29036009  0.17918642  0.90417561    -0.81000
O247        O  0.33967419  0.16919496  0.93596321    -0.83600
C248        C  0.35967921  0.16729825  0.96198919     1.04100
O249        O  0.35810320  0.16981327  0.00834105    -0.76400
O250        O  0.34326383  0.22025315  0.01696810    -0.76600
C251        C  0.32967559  0.23996473  0.00842815     1.04000
O252        O  0.26952232  0.20359468  0.06495972    -0.83900
O253        O  0.25379748  0.18605399  0.97381502    -0.81000
C254        C  0.25173357  0.16153262  0.97552938     0.99600
O255        O  0.27132699  0.14786741  0.98479330    -0.81000
O256        O  0.32127547  0.13405340  0.01101943    -0.83600
C257        C  0.32316172  0.13461717  0.05770424     1.04000
O258        O  0.31993246  0.15570801  0.08045989    -0.76400
O259        O  0.30799710  0.20772743  0.09797391    -0.76600
C260        C  0.28339303  0.20886100  0.10158176     1.04000
Cr261      Cr  0.28210383  0.21005154  0.99822197     1.93700
Cr262      Cr  0.30564085  0.15937041  0.96214970     1.93200
Cr263      Cr  0.33046298  0.18837623  0.04827182     1.39100
O264        O  0.30579467  0.18564307  0.00346539    -1.21700
O265        O  0.52565051  0.09676782  0.76276808    -0.83900
O266        O  0.57726992  0.10738263  0.76308002    -0.81000
C267        C  0.58335692  0.10534791  0.80820940     0.99500
O268        O  0.58326283  0.08361278  0.82888753    -0.81000
O269        O  0.57110025  0.03373601  0.85247944    -0.83600
C270        C  0.54793778  0.03581907  0.86780829     1.04100
O271        O  0.53054929  0.04363365  0.83938183    -0.76400
O272        O  0.50397034  0.06058237  0.76038444    -0.76600
C273        C  0.50521361  0.08437561  0.77148192     1.04000
O274        O  0.53083570  0.06474055  0.67398789    -0.83900
O275        O  0.58330926  0.07283323  0.68013832    -0.81000
C276        C  0.60608246  0.07341824  0.69652354     0.99600
O277        O  0.61022897  0.06828212  0.74153082    -0.81000
O278        O  0.59346184  0.01783034  0.76009626    -0.83600
C279        C  0.57938900  0.99914753  0.77323823     1.04000
O280        O  0.55560914  0.00325591  0.78291769    -0.76400
O281        O  0.53284261  0.02457671  0.70064781    -0.76600
C282        C  0.52776070  0.04050822  0.66702039     1.04000
Cr283      Cr  0.55438891  0.08346470  0.72245089     1.93700
Cr284      Cr  0.58757380  0.05123778  0.79313815     1.93200
Cr285      Cr  0.53256957  0.03446109  0.76985110     1.39100
O286        O  0.55833453  0.05627654  0.76111253    -1.21700
O287        O  0.64185316  0.76778104  0.00210556    -0.83900
O288        O  0.62973999  0.81914797  0.01000849    -0.81000
C289        C  0.63076307  0.82277252  0.05624779     0.99500
O290        O  0.65191114  0.82063527  0.07857538    -0.81000
O291        O  0.70237033  0.80923556  0.10252431    -0.83600
C292        C  0.70240105  0.78500935  0.11098773     1.04100
O293        O  0.69403716  0.76974778  0.07912047    -0.76400
O294        O  0.67858192  0.74729884  0.99554562    -0.76600
C295        C  0.65485031  0.74743361  0.00782175     1.04000
O296        O  0.67464672  0.77739394  0.91544463    -0.83900
O297        O  0.66549392  0.82943339  0.93079310    -0.81000
C298        C  0.66404647  0.85133724  0.95090054     0.99600
O299        O  0.66757528  0.85340317  0.99717785    -0.81000
O300        O  0.71823571  0.83784710  0.01665949    -0.83600
C301        C  0.73724933  0.82360158  0.02719092     1.04000
O302        O  0.73407364  0.79922155  0.03044675    -0.76400
O303        O  0.71443779  0.78086459  0.94298983    -0.76600
C304        C  0.69908325  0.77641260  0.90815722     1.04000
Cr305      Cr  0.65474455  0.79846574  0.96700762     1.93700
Cr306      Cr  0.68463156  0.82852578  0.04590272     1.93200
Cr307      Cr  0.70389242  0.77599929  0.01130209     1.39100
O308        O  0.68131342  0.80127351  0.00737295    -1.21700
O309        O  0.80609572  0.73659923  0.50845360    -0.83900
O310        O  0.79057615  0.71209482  0.42699545    -0.81000
C311        C  0.78521633  0.69540786  0.39526933     0.99500
O312        O  0.78463536  0.67156480  0.40677182    -0.81000
O313        O  0.83530465  0.66143567  0.43161083    -0.83600
C314        C  0.85644788  0.66078582  0.45453482     1.04100
O315        O  0.85684396  0.66553252  0.50054386    -0.76400
O316        O  0.84344104  0.71663994  0.50599583    -0.76600
C317        C  0.83025747  0.73678678  0.49932342     1.04000
O318        O  0.77108803  0.70336658  0.56421868    -0.83900
O319        O  0.75187806  0.68224455  0.47829349    -0.81000
C320        C  0.74959850  0.65788193  0.48411078     0.99600
O321        O  0.76920601  0.64475155  0.49538896    -0.81000
O322        O  0.81966385  0.63079699  0.51511085    -0.83600
C323        C  0.82258427  0.63369899  0.56119954     1.04000
O324        O  0.82048372  0.65583315  0.58000508    -0.76400
O325        O  0.81062518  0.70796055  0.59210655    -0.76600
C326        C  0.78617449  0.70966871  0.59843066     1.04000
Cr327      Cr  0.78141946  0.70680429  0.49539835     1.93700
Cr328      Cr  0.80238071  0.65407068  0.46491948     1.93200
Cr329      Cr  0.83100083  0.68628803  0.54207259     1.39100
O330        O  0.80487482  0.68230942  0.50107645    -1.21700
O331        O  0.49863328  0.55402439  0.27175662    -0.83900
O332        O  0.51891496  0.53987817  0.18467095    -0.81000
C333        C  0.53438686  0.53579320  0.14998841     0.99500
O334        O  0.55857917  0.53413416  0.15826082    -0.81000
O335        O  0.57133781  0.58336299  0.18426708    -0.83600
C336        C  0.57323866  0.60424723  0.20758951     1.04100
O337        O  0.56954645  0.60458364  0.25385431    -0.76400
O338        O  0.51820879  0.59133084  0.26485466    -0.76600
C339        C  0.49796273  0.57790587  0.26106455     1.04000
O340        O  0.53405025  0.51833868  0.31907172    -0.83900
O341        O  0.54986262  0.50003016  0.22834767    -0.81000
C342        C  0.57420846  0.49703047  0.23117477     0.99600
O343        O  0.58823704  0.51605907  0.24219123    -0.81000
O344        O  0.60457568  0.56591413  0.26258863    -0.83600
C345        C  0.60341261  0.56922182  0.30887430     1.04000
O346        O  0.58189589  0.56804652  0.33061290    -0.76400
O347        O  0.53014109  0.55780456  0.34824063    -0.76600
C348        C  0.52943413  0.53332451  0.35444599     1.04000
Cr349      Cr  0.52718516  0.52956834  0.25165772     1.93700
Cr350      Cr  0.57891017  0.54999428  0.21487534     1.93200
Cr351      Cr  0.54996822  0.57864874  0.29674064     1.39100
O352        O  0.55219193  0.55271219  0.25468536    -1.21700
C353        C  0.68702722  0.64262532  0.41739248     0.14100
C354        C  0.68614979  0.61551790  0.42120138     0.01100
C355        C  0.70396634  0.60282505  0.45175999     0.16000
C356        C  0.72337801  0.61689820  0.47589932     0.25500
C357        C  0.72542081  0.64404379  0.46963677    -0.40900
C358        C  0.70632128  0.65679633  0.44155261     0.32500
C359        C  0.66681137  0.60066612  0.39247152     0.01100
F360        F  0.70338886  0.57662392  0.45620508    -0.13200
F361        F  0.70707209  0.68285081  0.43496143    -0.13700
C362        C  0.66759607  0.60091602  0.34085050     0.16000
C363        C  0.64779601  0.58929160  0.31342472     0.25500
C364        C  0.62671425  0.57724733  0.33724024    -0.40800
C365        C  0.62673639  0.57597604  0.38910878     0.32400
C366        C  0.64664988  0.58750751  0.41634919     0.14100
F367        F  0.68724804  0.61309534  0.31699777    -0.13200
F368        F  0.60701278  0.56434852  0.41371145    -0.13700
F369        F  0.64853734  0.59129638  0.26367667    -0.16000
F370        F  0.64554983  0.58698491  0.46620312    -0.14500
F371        F  0.66947841  0.65534109  0.38910775    -0.14500
F372        F  0.74085530  0.60369524  0.50356539    -0.16000
C373        C  0.64535366  0.68711409  0.08615487     0.14100
C374        C  0.61819866  0.68621165  0.09036037     0.01100
C375        C  0.60322912  0.70416725  0.06401000     0.16000
C376        C  0.61512283  0.72310502  0.03495754     0.25500
C377        C  0.64240206  0.72463955  0.03170450    -0.40900
C378        C  0.65736398  0.70614095  0.05718521     0.32500
C379        C  0.60535764  0.66639238  0.12163380     0.01100
F380        F  0.57698046  0.70390853  0.06773804    -0.13200
F381        F  0.68364980  0.70715294  0.05607369    -0.13700
C382        C  0.61018610  0.66513513  0.17251479     0.16000
C383        C  0.59850458  0.64588048  0.20149078     0.25500
C384        C  0.58191403  0.62746042  0.17992001    -0.40800
C385        C  0.57655752  0.62931753  0.12918719     0.32400
C386        C  0.58812628  0.64855252  0.10046818     0.14100
F387        F  0.62642986  0.68243208  0.19404182    -0.13200
F388        F  0.56050707  0.61205154  0.10696244    -0.13700
F389        F  0.60456187  0.64440514  0.24996551    -0.16000
F390        F  0.58323773  0.64914547  0.05143245    -0.14500
F391        F  0.66026762  0.66960118  0.11035572    -0.14500
F392        F  0.59981466  0.74031786  0.01084666    -0.16000
C393        C  0.74824393  0.76751725  0.80567394     0.14100
C394        C  0.73613307  0.74911644  0.77539425     0.01100
C395        C  0.71075273  0.74102575  0.78723507     0.16000
C396        C  0.69801124  0.75077501  0.82900868     0.25500
C397        C  0.71051015  0.76858895  0.86012954    -0.40900
C398        C  0.73566426  0.77707951  0.84749616     0.32500
C399        C  0.74957667  0.73916659  0.73056552     0.01100
F400        F  0.69856454  0.72304057  0.75910772    -0.13200
F401        F  0.74819339  0.79480400  0.87573060    -0.13700
C402        C  0.77435031  0.72761460  0.73316340     0.16000
C403        C  0.78675209  0.71845156  0.69041002     0.25500
C404        C  0.77446353  0.72039005  0.64434449    -0.40800
C405        C  0.74989369  0.73244312  0.64203700     0.32400
C406        C  0.73773677  0.74172746  0.68442854     0.14100
F407        F  0.78628393  0.72465014  0.77727575    -0.13200
F408        F  0.73765957  0.73582474  0.59831545    -0.13700
F409        F  0.81037151  0.70705707  0.69434447    -0.16000
F410        F  0.71446570  0.75381184  0.68015585    -0.14500
F411        F  0.77222397  0.77657414  0.79438924    -0.14500
F412        F  0.67396461  0.74186290  0.84015968    -0.16000
C413        C  0.74306150  0.73809618  0.18282931     0.14100
C414        C  0.74050613  0.74730930  0.23079825     0.01100
C415        C  0.72635779  0.77014750  0.23989684     0.16000
C416        C  0.71411849  0.78320086  0.20101323     0.25500
C417        C  0.71598034  0.77334387  0.15307256    -0.40900
C418        C  0.73101423  0.75095837  0.14432274     0.32500
C419        C  0.75294880  0.73282990  0.27081718     0.01100
F420        F  0.72397637  0.77936226  0.28641229    -0.13200
F421        F  0.73437676  0.74161445  0.09805205    -0.13700
C422        C  0.77577164  0.74225623  0.29199974     0.16000
C423        C  0.78779229  0.72844226  0.32959030     0.25500
C424        C  0.77695215  0.70512161  0.34700441    -0.40800
C425        C  0.75477144  0.69500600  0.32398628     0.32400
C426        C  0.74289531  0.70879692  0.28586900     0.14100
F427        F  0.78620458  0.76501074  0.27664698    -0.13200
F428        F  0.74350665  0.67293156  0.34073425    -0.13700
F429        F  0.80949581  0.73841752  0.35058803    -0.16000
F430        F  0.72100362  0.69927438  0.26487655    -0.14500
F431        F  0.75744081  0.71662581  0.17330116    -0.14500
F432        F  0.69979707  0.80470289  0.21032899    -0.16000
C433        C  0.64192541  0.89059584  0.84022433     0.14100
C434        C  0.63152094  0.91269766  0.86258614     0.01100
C435        C  0.63399648  0.91583374  0.91367976     0.16000
C436        C  0.64589570  0.89663611  0.94237522     0.25500
C437        C  0.65543828  0.87379135  0.92039953    -0.40900
C438        C  0.65377484  0.87134922  0.86864474     0.32500
C439        C  0.61766012  0.93236218  0.83288296     0.01100
F440        F  0.62448851  0.93740189  0.93585399    -0.13200
F441        F  0.66297671  0.84997931  0.84532804    -0.13700
C442        C  0.59058556  0.93445218  0.83566393     0.16000
C443        C  0.57764899  0.95481849  0.81206515     0.25500
C444        C  0.59168358  0.97382013  0.78585279    -0.40800
C445        C  0.61868454  0.97027344  0.77985012     0.32400
C446        C  0.63147834  0.94974234  0.80321594     0.14100
F447        F  0.57675292  0.91717105  0.86263167    -0.13200
F448        F  0.63304520  0.98740550  0.75354060    -0.13700
F449        F  0.55155848  0.95669582  0.81754547    -0.16000
F450        F  0.65761590  0.94762921  0.79900993    -0.14500
F451        F  0.63977948  0.88722138  0.79089167    -0.14500
F452        F  0.64704853  0.90002563  0.99181075    -0.16000
C453        C  0.40898512  0.15558025  0.86185664     0.14100
C454        C  0.42544938  0.13722126  0.88395588     0.01100
C455        C  0.42178775  0.13118641  0.93402938     0.16000
C456        C  0.40120188  0.14210489  0.96051828     0.25500
C457        C  0.38416355  0.15962306  0.93769933    -0.40900
C458        C  0.38875742  0.16683286  0.88856403     0.32500
C459        C  0.44556821  0.12364278  0.85419193     0.01100
F460        F  0.43781664  0.11425095  0.95711493    -0.13200
F461        F  0.37306973  0.18422118  0.86577243    -0.13700
C462        C  0.46314286  0.13776109  0.82508579     0.16000
C463        C  0.48162763  0.12495739  0.79630358     0.25500
C464        C  0.48336167  0.09769231  0.79660530    -0.40800
C465        C  0.46568429  0.08356401  0.82555104     0.32400
C466        C  0.44689934  0.09638538  0.85367859     0.14100
F467        F  0.46291842  0.16406697  0.82547142    -0.13200
F468        F  0.46714925  0.05734303  0.82823680    -0.13700
F469        F  0.49800916  0.13938149  0.76840670    -0.16000
F470        F  0.42987492  0.08204247  0.88028534    -0.14500
F471        F  0.41153833  0.16163634  0.81353016    -0.14500
F472        F  0.39694391  0.13420374  0.00743598    -0.16000
C473        C  0.52105890  0.48435077  0.45682535     0.14100
C474        C  0.50137760  0.49572681  0.48504485     0.01100
C475        C  0.49184713  0.52028282  0.47169782     0.16000
C476        C  0.50170268  0.53315941  0.43035484     0.25500
C477        C  0.52123863  0.52163054  0.40166696    -0.40900
C478        C  0.53092820  0.49715818  0.41557792     0.32500
C479        C  0.49227414  0.48290266  0.53057673     0.01100
F480        F  0.47262493  0.53154386  0.49827475    -0.13200
F481        F  0.55015406  0.48567197  0.38934101    -0.13700
C482        C  0.49782508  0.49432836  0.57602966     0.16000
C483        C  0.48965596  0.48266121  0.61954321     0.25500
C484        C  0.47541639  0.45933066  0.61869729    -0.40800
C485        C  0.47026007  0.44750591  0.57312898     0.32400
C486        C  0.47870246  0.45922789  0.52927816     0.14100
F487        F  0.51141722  0.51682929  0.57825943    -0.13200
F488        F  0.45613358  0.42535107  0.57090780    -0.13700
F489        F  0.49582401  0.49425340  0.66281298    -0.16000
F490        F  0.47298382  0.44793557  0.48553423    -0.14500
F491        F  0.53105881  0.46100474  0.46982094    -0.14500
F492        F  0.49133492  0.55631462  0.41717458    -0.16000
C493        C  0.51884386  0.50114993  0.03189569     0.14100
C494        C  0.49366871  0.51048680  0.02308686     0.01100
C495        C  0.48406091  0.53111087  0.05110881     0.16000
C496        C  0.49875505  0.54119461  0.08955493     0.25500
C497        C  0.52304976  0.53037956  0.10137812    -0.40900
C498        C  0.53350013  0.51102090  0.07093547     0.32500
C499        C  0.47723402  0.49850349  0.98512466     0.01100
F500        F  0.45989146  0.54057698  0.04283853    -0.13200
F501        F  0.55698756  0.50040977  0.08097538    -0.13700
C502        C  0.46844975  0.47287517  0.99059197     0.16000
C503        C  0.45451719  0.46090220  0.95273297     0.25500
C504        C  0.44903286  0.47456604  0.90946410    -0.40800
C505        C  0.45683481  0.50056629  0.90508171     0.32400
C506        C  0.47074995  0.51249712  0.94276280     0.14100
F507        F  0.47404545  0.45929594  0.03198039    -0.13200
F508        F  0.45275656  0.51377021  0.86265923    -0.13700
F509        F  0.44768416  0.43561309  0.95702805    -0.16000
F510        F  0.47929332  0.53718231  0.93669314    -0.14500
F511        F  0.52886244  0.48196712  0.00352337    -0.14500
F512        F  0.48875174  0.56088439  0.11664314    -0.16000
C513        C  0.34006505  0.30683657  0.95098609     0.14100
C514        C  0.36407455  0.30336233  0.92740873     0.01100
C515        C  0.37696025  0.27965108  0.93213254     0.16000
C516        C  0.36608834  0.25954555  0.95959657     0.25500
C517        C  0.34185233  0.26263665  0.98328076    -0.40900
C518        C  0.32889768  0.28658661  0.97835900     0.32500
C519        C  0.37598227  0.32428603  0.89769688     0.01100
F520        F  0.40021032  0.27592715  0.90980817    -0.13200
F521        F  0.30532727  0.29035104  0.99934743    -0.13700
C522        C  0.38735127  0.34569339  0.92088848     0.16000
C523        C  0.39952861  0.36499273  0.89311080     0.25500
C524        C  0.40041371  0.36337942  0.84125780    -0.40800
C525        C  0.38932392  0.34160548  0.81818526     0.32400
C526        C  0.37728968  0.32221877  0.84622335     0.14100
F527        F  0.38689896  0.34775946  0.97064234    -0.13200
F528        F  0.38918741  0.33951204  0.76843888    -0.13700
F529        F  0.41046680  0.38530046  0.91714483    -0.16000
F530        F  0.36641353  0.30160870  0.82309252    -0.14500
F531        F  0.32719800  0.32966039  0.94653779    -0.14500
F532        F  0.37904325  0.23665983  0.96119294    -0.16000
C533        C  0.56514754  0.34874810  0.93154215     0.14100
C534        C  0.56742151  0.35450092  0.88118470     0.01100
C535        C  0.58970599  0.34684428  0.85579607     0.16000
C536        C  0.60981193  0.33427180  0.88017024     0.25500
C537        C  0.60829041  0.32917236  0.93122018    -0.40900
C538        C  0.58542722  0.33615574  0.95644535     0.32500
C539        C  0.54697532  0.36875815  0.85430621     0.01100
F540        F  0.59245743  0.35248860  0.80730669    -0.13200
F541        F  0.58288878  0.33147589  0.00532642    -0.13700
C542        C  0.54220702  0.39505777  0.86419874     0.16000
C543        C  0.52418446  0.40896984  0.83601570     0.25500
C544        C  0.51045074  0.39662687  0.79793671    -0.40800
C545        C  0.51564585  0.37037729  0.78772443     0.32400
C546        C  0.53377380  0.35663549  0.81552007     0.14100
F547        F  0.55517417  0.40727173  0.90091645    -0.13200
F548        F  0.50302318  0.35794087  0.75081505    -0.13700
F549        F  0.51934375  0.43411753  0.84737736    -0.16000
F550        F  0.53828604  0.33131804  0.80493540    -0.14500
F551        F  0.54338056  0.35545884  0.95652828    -0.14500
F552        F  0.63121460  0.32806154  0.85361522    -0.16000
C553        C  0.62814848  0.41403493  0.08225014     0.14100
C554        C  0.62779162  0.41367985  0.13389153     0.01100
C555        C  0.64161954  0.39441386  0.15898074     0.16000
C556        C  0.65513890  0.37538281  0.13306852     0.25500
C557        C  0.65502503  0.37509648  0.08119785    -0.40900
C558        C  0.64167376  0.39495858  0.05605279     0.32500
C559        C  0.61342443  0.43357125  0.16203820     0.01100
F560        F  0.64132945  0.39356605  0.20886389    -0.13200
F561        F  0.64073609  0.39539615  0.00617633    -0.13700
C562        C  0.58640433  0.43594421  0.15762204     0.16000
C563        C  0.57310398  0.45528222  0.18349304     0.25500
C564        C  0.58672694  0.47279040  0.21385875    -0.40800
C565        C  0.61362760  0.46927909  0.22021566     0.32400
C566        C  0.62680986  0.45003387  0.19424116     0.14100
F567        F  0.57294795  0.41973862  0.12770986    -0.13200
F568        F  0.62746912  0.48510089  0.25022630    -0.13700
F569        F  0.54712680  0.45758655  0.17676595    -0.16000
F570        F  0.65294335  0.44816909  0.19893742    -0.14500
F571        F  0.61529981  0.43281434  0.05717988    -0.14500
F572        F  0.66782194  0.35685350  0.15906112    -0.16000
C573        C  0.61253800  0.20058232  0.96052358     0.14100
C574        C  0.62784971  0.18518282  0.92950141     0.01100
C575        C  0.65491740  0.18793768  0.93039915     0.16000
C576        C  0.66648040  0.20658818  0.96060006     0.25500
C577        C  0.65103961  0.22309440  0.98965338    -0.40900
C578        C  0.62397903  0.21936068  0.99031698     0.32500
C579        C  0.61544247  0.16574977  0.89740808     0.01100
F580        F  0.67011313  0.17280037  0.90148250    -0.13200
F581        F  0.60843131  0.23447071  0.01863891    -0.13700
C582        C  0.61759642  0.16723918  0.84592180     0.16000
C583        C  0.60599621  0.14835202  0.81609388     0.25500
C584        C  0.59219498  0.12774178  0.83758094    -0.40800
C585        C  0.58944192  0.12693979  0.88913177     0.32400
C586        C  0.60108332  0.14563470  0.91863139     0.14100
F587        F  0.63108032  0.18686066  0.82467725    -0.13200
F588        F  0.57581289  0.10768118  0.91127686    -0.13700
F589        F  0.60931293  0.14955347  0.76663633    -0.16000
F590        F  0.59903527  0.14362885  0.96825880    -0.14500
F591        F  0.58633295  0.19808304  0.96052085    -0.14500
F592        F  0.69261404  0.20953331  0.95894330    -0.16000
C593        C  0.35476685  0.53589671  0.80030339     0.14100
C594        C  0.36863636  0.55796853  0.81471878     0.01100
C595        C  0.39525396  0.55949210  0.80409943     0.16000
C596        C  0.40826275  0.53828225  0.78336261     0.25500
C597        C  0.39479780  0.51514462  0.77288079    -0.40900
C598        C  0.36760183  0.51477959  0.77929243     0.32500
C599        C  0.35587996  0.57815876  0.84501925     0.01100
F600        F  0.40901590  0.58086837  0.81693687    -0.13200
F601        F  0.35346766  0.49328585  0.76878128    -0.13700
C602        C  0.34630643  0.57187098  0.89191686     0.16000
C603        C  0.33596139  0.59107461  0.92249806     0.25500
C604        C  0.33486109  0.61705630  0.90673589    -0.40800
C605        C  0.34365794  0.62305789  0.85874369     0.32400
C606        C  0.35414362  0.60379776  0.82845631     0.14100
F607        F  0.34795571  0.54719704  0.90892301    -0.13200
F608        F  0.34294563  0.64770392  0.84137058    -0.13700
F609        F  0.32772337  0.58420620  0.96807832    -0.16000
F610        F  0.36285845  0.61025505  0.78297527    -0.14500
F611        F  0.32887715  0.53432476  0.80879071    -0.14500
F612        F  0.43422021  0.53997367  0.77595551    -0.16000
C613        C  0.43979992  0.58840350  0.17935635     0.14100
C614        C  0.43716417  0.61550187  0.18152579     0.01100
C615        C  0.45197177  0.62947362  0.21584176     0.16000
C616        C  0.47038705  0.61683487  0.24493702     0.25500
C617        C  0.47431484  0.58995503  0.24039220    -0.40900
C618        C  0.45800521  0.57568145  0.20895861     0.32500
C619        C  0.41884968  0.62915664  0.14835590     0.01100
F620        F  0.44945123  0.65557998  0.21960653    -0.13200
F621        F  0.46083816  0.54964074  0.20430628    -0.13700
C622        C  0.39870381  0.64410974  0.16817761     0.16000
C623        C  0.38050473  0.65579925  0.13738858     0.25500
C624        C  0.38171544  0.65240776  0.08595260    -0.40800
C625        C  0.40279868  0.63875667  0.06585215     0.32400
C626        C  0.42117986  0.62712997  0.09688255     0.14100
F627        F  0.39592197  0.64642455  0.21762732    -0.13200
F628        F  0.40490316  0.63551113  0.01650120    -0.13700
F629        F  0.36119649  0.66996405  0.15816335    -0.16000
F630        F  0.44105092  0.61353187  0.07673978    -0.14500
F631        F  0.42505296  0.57429820  0.14785384    -0.14500
F632        F  0.48492536  0.63102008  0.27666268    -0.16000
C633        C  0.85591835  0.57183219  0.60017800     0.14100
C634        C  0.85816124  0.57559297  0.65111644     0.01100
C635        C  0.84579413  0.59677460  0.67317198     0.16000
C636        C  0.83256151  0.61482903  0.64422538     0.25500
C637        C  0.83164276  0.61201796  0.59254731    -0.40900
C638        C  0.84278139  0.58981591  0.57109796     0.32500
C639        C  0.87389374  0.55739946  0.68039550     0.01100
F640        F  0.84753716  0.60060594  0.72244286    -0.13200
F641        F  0.84224249  0.58608005  0.52170758    -0.13700
C642        C  0.90033512  0.55435033  0.66972893     0.16000
C643        C  0.91426867  0.53374495  0.68983958     0.25500
C644        C  0.90184396  0.51572762  0.72080175    -0.40800
C645        C  0.87598710  0.52041327  0.73522333     0.32400
C646        C  0.86214240  0.54114985  0.71514626     0.14100
F647        F  0.91228546  0.57057798  0.63762650    -0.13200
F648        F  0.86363667  0.50414068  0.76668045    -0.13700
F649        F  0.93928044  0.53034954  0.67568691    -0.16000
F650        F  0.83675391  0.54423077  0.72692313    -0.14500
F651        F  0.86703391  0.55091182  0.57842576    -0.14500
F652        F  0.82143727  0.63551291  0.66675913    -0.16000
C653        C  0.78535608  0.38083074  0.94468230     0.14100
C654        C  0.80490878  0.36728128  0.91991981     0.01100
C655        C  0.80456462  0.34009683  0.91977859     0.16000
C656        C  0.78398293  0.32660377  0.94154655     0.25500
C657        C  0.76335167  0.34019779  0.96389120    -0.40900
C658        C  0.76486060  0.36748436  0.96677897     0.32500
C659        C  0.82516809  0.38162715  0.89284334     0.01100
F660        F  0.82368948  0.32664441  0.89688065    -0.13200
F661        F  0.74602219  0.38146748  0.98941727    -0.13700
C662        C  0.84898529  0.38695157  0.91518195     0.16000
C663        C  0.86837833  0.40012320  0.88933864     0.25500
C664        C  0.86448472  0.40792401  0.83996313    -0.40800
C665        C  0.84009300  0.40308510  0.81825672     0.32400
C666        C  0.82064586  0.39012130  0.84460608     0.14100
F667        F  0.85360607  0.37895797  0.96191699    -0.13200
F668        F  0.83516404  0.41028587  0.77120323    -0.13700
F669        F  0.89128467  0.40438943  0.91251801    -0.16000
F670        F  0.79750771  0.38529551  0.82265585    -0.14500
F671        F  0.78574664  0.40711397  0.94617122    -0.14500
F672        F  0.78370011  0.30034897  0.93845769    -0.16000
C673        C  0.96147958  0.63537767  0.31800266     0.14100
C674        C  0.94284880  0.61998444  0.34173649     0.01100
C675        C  0.94391302  0.59295600  0.33598375     0.16000
C676        C  0.96350989  0.58142163  0.30771853     0.25500
C677        C  0.98270920  0.59670544  0.28487872    -0.40900
C678        C  0.98125760  0.62392123  0.29007411     0.32500
C679        C  0.92191976  0.63207072  0.37159472     0.01100
F680        F  0.92586996  0.57767369  0.35783544    -0.13200
F681        F  0.99914876  0.63956365  0.26861935    -0.13700
C682        C  0.90260066  0.64688184  0.34865044     0.16000
C683        C  0.88186639  0.65691134  0.37594136     0.25500
C684        C  0.88013633  0.65265335  0.42714173    -0.40800
C685        C  0.89993728  0.63835738  0.45029082     0.32400
C686        C  0.92057481  0.62810021  0.42270559     0.14100
F687        F  0.90332849  0.65083881  0.29931885    -0.13200
F688        F  0.89862810  0.63310174  0.49911411    -0.13700
F689        F  0.86321208  0.67049321  0.35194065    -0.16000
F690        F  0.93913746  0.61398650  0.44579075    -0.14500
F691        F  0.96089233  0.66155093  0.32291175    -0.14500
F692        F  0.96415216  0.55519310  0.30429783    -0.16000
C693        C  0.99598038  0.46874396  0.97123878     0.14100
C694        C  0.99174890  0.49546574  0.97849812     0.01100
C695        C  0.97702304  0.50909923  0.94365273     0.16000
C696        C  0.96677767  0.49634128  0.90255371     0.25500
C697        C  0.97071270  0.46942802  0.89551790    -0.40900
C698        C  0.98535481  0.45583077  0.93062821     0.32500
C699        C  0.00149415  0.50853949  0.02381557     0.01100
F700        F  0.97200666  0.53472306  0.94988394    -0.13200
F701        F  0.99015938  0.43015548  0.92498075    -0.13700
C702        C  0.01659873  0.53134306  0.02179753     0.16000
C703        C  0.02607138  0.54279191  0.06521673     0.25500
C704        C  0.02092352  0.53138987  0.11116816    -0.40800
C705        C  0.00550056  0.50887846  0.11289404     0.32400
C706        C  0.99567456  0.49785985  0.06997547     0.14100
F707        F  0.02286040  0.54208078  0.97781965    -0.13200
F708        F  0.99951982  0.49758223  0.15653379    -0.13700
F709        F  0.04111327  0.56431307  0.06217293    -0.16000
F710        F  0.98007944  0.47675782  0.07367177    -0.14500
F711        F  0.01089986  0.45513623  0.00320212    -0.14500
F712        F  0.95283343  0.51048875  0.86979150    -0.16000
C713        C  0.96447168  0.48529594  0.52311610     0.14100
C714        C  0.99151092  0.48198086  0.51763853     0.01100
C715        C  0.00446636  0.46548412  0.55052887     0.16000
C716        C  0.99110955  0.45343823  0.58877817     0.25500
C717        C  0.96458264  0.45867216  0.59727115    -0.40900
C718        C  0.95118791  0.47401759  0.56291298     0.32500
C719        C  0.00649727  0.49614666  0.47897865     0.01100
F720        F  0.03053015  0.46213286  0.54765814    -0.13200
F721        F  0.92559360  0.47918571  0.56902803    -0.13700
C722        C  0.00359728  0.52311151  0.47277062     0.16000
C723        C  0.01735071  0.53623883  0.43592394     0.25500
C724        C  0.03527643  0.52300170  0.40618193    -0.40800
C725        C  0.03890615  0.49630990  0.41341775     0.32400
C726        C  0.02438428  0.48293564  0.44878289     0.14100
F727        F  0.98738797  0.53680715  0.50228657    -0.13200
F728        F  0.05496238  0.48273947  0.38341890    -0.13700
F729        F  0.01267519  0.56181765  0.42835771    -0.16000
F730        F  0.02690641  0.45679669  0.45173867    -0.14500
F731        F  0.95095668  0.49986781  0.49045612    -0.14500
F732        F  0.00469933  0.43754311  0.61910378    -0.16000
C733        C  0.20286771  0.61093726  0.03973106     0.14100
C734        C  0.18635721  0.62339273  0.07337631     0.01100
C735        C  0.18880045  0.65029478  0.07998807     0.16000
C736        C  0.20900829  0.66401813  0.05759653     0.25500
C737        C  0.22741433  0.65106322  0.02813903    -0.40900
C738        C  0.22316341  0.62462754  0.01721172     0.32500
C739        C  0.16799295  0.60836874  0.10464171     0.01100
F740        F  0.17218685  0.66314605  0.11006714    -0.13200
F741        F  0.23951706  0.61156673  0.98693538    -0.13700
C742        C  0.16997304  0.60971701  0.15619604     0.16000
C743        C  0.15169262  0.59746754  0.18638776     0.25500
C744        C  0.13088194  0.58359216  0.16568704    -0.40800
C745        C  0.12976972  0.58105806  0.11400398     0.32400
C746        C  0.14814507  0.59329977  0.08384763     0.14100
F747        F  0.18943905  0.62344958  0.17740451    -0.13200
F748        F  0.11045360  0.56725794  0.09247376    -0.13700
F749        F  0.15357895  0.60055388  0.23581397    -0.16000
F750        F  0.14579472  0.59142199  0.03426874    -0.14500
F751        F  0.20049557  0.58513191  0.03119709    -0.14500
F752        F  0.21154965  0.68962173  0.06796563    -0.16000
C753        C  0.35231140  0.38979071  0.58246670     0.14100
C754        C  0.33095699  0.37692665  0.60303613     0.01100
C755        C  0.32761032  0.37719286  0.65429166     0.16000
C756        C  0.34534676  0.39004598  0.68464858     0.25500
C757        C  0.36702612  0.40274494  0.66433687    -0.40900
C758        C  0.37027764  0.40245398  0.61275459     0.32500
C759        C  0.31183375  0.36337090  0.57147573     0.01100
F760        F  0.30712259  0.36481780  0.67502927    -0.13200
F761        F  0.39103137  0.41414437  0.59150391    -0.13700
C762        C  0.30941037  0.33632388  0.57361327     0.16000
C763        C  0.28884400  0.32380102  0.54983205     0.25500
C764        C  0.26958333  0.33826122  0.52511045    -0.40800
C765        C  0.27348348  0.36520311  0.51945948     0.32400
C766        C  0.29448956  0.37756414  0.54229487     0.14100
F767        F  0.32633549  0.32213222  0.60073627    -0.13200
F768        F  0.25621821  0.37991274  0.49420217    -0.13700
F769        F  0.28681527  0.29768798  0.55445993    -0.16000
F770        F  0.29687756  0.40369363  0.53874187    -0.14500
F771        F  0.35612996  0.38947308  0.53309564    -0.14500
F772        F  0.34184044  0.38903918  0.73407858    -0.16000
C773        C  0.23287903  0.23831436  0.18660655     0.14100
C774        C  0.24491488  0.23666250  0.23260312     0.01100
C775        C  0.26979925  0.22558053  0.23591606     0.16000
C776        C  0.28244367  0.21632299  0.19362960     0.25500
C777        C  0.27038221  0.21802984  0.14730300    -0.40900
C778        C  0.24539946  0.22920064  0.14446254     0.32500
C779        C  0.23187613  0.24770659  0.27651231     0.01100
F780        F  0.28175211  0.22359014  0.28020382    -0.13200
F781        F  0.23328857  0.23221642  0.10052666    -0.13700
C782        C  0.20886466  0.23674511  0.29502883     0.16000
C783        C  0.19680941  0.24723894  0.33687866     0.25500
C784        C  0.20773525  0.26872979  0.36093282    -0.40800
C785        C  0.23010700  0.28032203  0.34084931     0.32400
C786        C  0.24201510  0.26992269  0.29909122     0.14100
F787        F  0.19863154  0.21532128  0.27357060    -0.13200
F788        F  0.24062221  0.30168971  0.36210172    -0.13700
F789        F  0.17538943  0.23552425  0.35544337    -0.16000
F790        F  0.26350259  0.28157188  0.28056934    -0.14500
F791        F  0.20921722  0.24960289  0.18226968    -0.14500
F792        F  0.30627692  0.20543318  0.19814457    -0.16000
C793        C  0.26518006  0.21409505  0.76775038     0.14100
C794        C  0.26600871  0.24136986  0.76512095     0.01100
C795        C  0.27901690  0.25519000  0.80194955     0.16000
C796        C  0.28947684  0.24231212  0.84216489     0.25500
C797        C  0.28612998  0.21528158  0.84782496    -0.40900
C798        C  0.27490768  0.20114030  0.80911450     0.32500
C799        C  0.25145289  0.25571512  0.72687271     0.01100
F800        F  0.27993357  0.28148813  0.80112929    -0.13200
F801        F  0.27195551  0.17506470  0.81240012    -0.13700
C802        C  0.22500126  0.25047070  0.71924833     0.16000
C803        C  0.21108605  0.26409963  0.68371432     0.25500
C804        C  0.22297884  0.28406648  0.65686662    -0.40800
C805        C  0.24889223  0.29047211  0.66661260     0.32400
C806        C  0.26327361  0.27589632  0.70019280     0.14100
F807        F  0.21260051  0.23208899  0.74611150    -0.13200
F808        F  0.26081921  0.30960227  0.64106014    -0.13700
F809        F  0.18613372  0.25730745  0.67437819    -0.16000
F810        F  0.28899447  0.28083135  0.70517042    -0.14500
F811        F  0.25404831  0.20010111  0.73114443    -0.14500
F812        F  0.30151259  0.25677488  0.87709500    -0.16000
C813        C  0.03682206  0.35909594  0.70368957     0.14100
C814        C  0.05601638  0.37450264  0.68184358     0.01100
C815        C  0.05528123  0.40147616  0.68869842     0.16000
C816        C  0.03504351  0.41298460  0.71525905     0.25500
C817        C  0.01504225  0.39768829  0.73548992    -0.40900
C818        C  0.01656286  0.37049099  0.73026523     0.32500
C819        C  0.07681527  0.36242207  0.65191643     0.01100
F820        F  0.07369604  0.41679307  0.66804961    -0.13200
F821        F  0.99821031  0.35480827  0.75012242    -0.13700
C822        C  0.07105876  0.35002528  0.60718666     0.16000
C823        C  0.09088282  0.33907012  0.57851900     0.25500
C824        C  0.11690011  0.34023877  0.59421691    -0.40800
C825        C  0.12235771  0.35228728  0.63985232     0.32400
C826        C  0.10256702  0.36332893  0.66802847     0.14100
F827        F  0.04623746  0.34906155  0.59075088    -0.13200
F828        F  0.14697237  0.35392715  0.65724066    -0.13700
F829        F  0.08454443  0.32737424  0.53548572    -0.16000
F830        F  0.10856877  0.37488743  0.71141004    -0.14500
F831        F  0.03768961  0.33291586  0.69912506    -0.14500
F832        F  0.03448273  0.43920607  0.71908085    -0.16000
C833        C  0.09313479  0.43263020  0.31449236     0.14100
C834        C  0.11919836  0.43411266  0.32955347     0.01100
C835        C  0.13367763  0.45617351  0.31744422     0.16000
C836        C  0.12196740  0.47722779  0.29419800     0.25500
C837        C  0.09525743  0.47680613  0.28257904    -0.40900
C838        C  0.08123625  0.45381218  0.29124017     0.32500
C839        C  0.13121061  0.41342321  0.35989383     0.01100
F840        F  0.15915792  0.45767028  0.32964514    -0.13200
F841        F  0.05577436  0.45216872  0.27907890    -0.13700
C842        C  0.13282179  0.38795192  0.34239103     0.16000
C843        C  0.14469081  0.36868175  0.37065047     0.25500
C844        C  0.15544222  0.37446289  0.41730820    -0.40800
C845        C  0.15354352  0.40007810  0.43488231     0.32400
C846        C  0.14158147  0.41929890  0.40644364     0.14100
F847        F  0.12312874  0.38173223  0.29751546    -0.13200
F848        F  0.16279771  0.40655791  0.47994004    -0.13700
F849        F  0.14507088  0.34420520  0.35234989    -0.16000
F850        F  0.13963006  0.44367474  0.42486707    -0.14500
F851        F  0.07880782  0.41123040  0.32464967    -0.14500
F852        F  0.13662784  0.49866789  0.28621000    -0.16000
C853        C  0.70937190  0.10718150  0.56754458     0.14100
C854        C  0.68621968  0.12044973  0.57685823     0.01100
C855        C  0.68336738  0.14603606  0.55975202     0.16000
C856        C  0.70408445  0.15863455  0.53628839     0.25500
C857        C  0.72784555  0.14571650  0.52927253    -0.40900
C858        C  0.72990188  0.11953504  0.54398110     0.32500
C859        C  0.66583027  0.10777290  0.60674078     0.01100
F860        F  0.66103620  0.15923973  0.56806262    -0.13200
F861        F  0.75246670  0.10623430  0.53906357    -0.13700
C862        C  0.67137795  0.09948035  0.65482407     0.16000
C863        C  0.65243075  0.08717177  0.68322841     0.25500
C864        C  0.62736313  0.08295773  0.66418329    -0.40800
C865        C  0.62215488  0.09073968  0.61528525     0.32400
C866        C  0.64116659  0.10313056  0.58710001     0.14100
F867        F  0.69508275  0.10392812  0.67481616    -0.13200
F868        F  0.59850503  0.08684929  0.59468947    -0.13700
F869        F  0.65856662  0.08004662  0.72982809    -0.16000
F870        F  0.63553111  0.11047578  0.54038680    -0.14500
F871        F  0.71245681  0.08234263  0.58294300    -0.14500
F872        F  0.70119767  0.18368029  0.52205148    -0.16000
C873        C  0.74664548  0.24676040  0.32269251     0.14100
C874        C  0.75978425  0.24543958  0.27761663     0.01100
C875        C  0.78509586  0.23503543  0.27664076     0.16000
C876        C  0.79652008  0.22532402  0.31982125     0.25500
C877        C  0.78253784  0.22524219  0.36425941    -0.40900
C878        C  0.75759870  0.23646641  0.36511334     0.32500
C879        C  0.74642627  0.25450391  0.23224894     0.01100
F880        F  0.79842242  0.23340723  0.23371906    -0.13200
F881        F  0.74359798  0.23773511  0.40733864    -0.13700
C882        C  0.75822664  0.27242729  0.20047833     0.16000
C883        C  0.74500403  0.28152185  0.15902046     0.25500
C884        C  0.71939611  0.27339625  0.14904224    -0.40800
C885        C  0.70744633  0.25585569  0.18133901     0.32400
C886        C  0.72099978  0.24609438  0.22181063     0.14100
F887        F  0.78240559  0.28153709  0.20991845    -0.13200
F888        F  0.68303146  0.24719360  0.17264191    -0.13700
F889        F  0.75730743  0.29842884  0.12869719    -0.16000
F890        F  0.70941877  0.22785031  0.25028484    -0.14500
F891        F  0.72298252  0.25817823  0.32583270    -0.14500
F892        F  0.82077111  0.21518215  0.31770677    -0.16000
C893        C  0.77407852  0.22491749  0.73365313     0.14100
C894        C  0.74713520  0.22930175  0.73264517     0.01100
C895        C  0.73248134  0.21922366  0.69353588     0.16000
C896        C  0.74456373  0.20544281  0.65572640     0.25500
C897        C  0.77153723  0.20168650  0.65602306    -0.40900
C898        C  0.78622521  0.21150270  0.69520535     0.32500
C899        C  0.73421425  0.24437730  0.77211798     0.01100
F900        F  0.70662872  0.22394341  0.69060368    -0.13200
F901        F  0.81240546  0.20890941  0.69521324    -0.13700
C902        C  0.74220012  0.26978384  0.78339444     0.16000
C903        C  0.73067622  0.28340327  0.82224810     0.25500
C904        C  0.71096709  0.27182107  0.85035366    -0.40800
C905        C  0.70217676  0.24689561  0.83741898     0.32400
C906        C  0.71376864  0.23328123  0.79892076     0.14100
F907        F  0.76147331  0.28124885  0.75730517    -0.13200
F908        F  0.68283030  0.23532269  0.86315535    -0.13700
F909        F  0.73996847  0.30717035  0.83437918    -0.16000
F910        F  0.70578136  0.20873046  0.78926870    -0.14500
F911        F  0.78864853  0.23393665  0.77151174    -0.14500
F912        F  0.73013488  0.19743072  0.61689454    -0.16000
C913        C  0.88974012  0.34042280  0.60608580     0.14100
C914        C  0.88078395  0.31863640  0.63138786     0.01100
C915        C  0.88434998  0.31708469  0.68256267     0.16000
C916        C  0.89620600  0.33754803  0.70827037     0.25500
C917        C  0.90506085  0.35969085  0.68287156    -0.40900
C918        C  0.90189873  0.36056509  0.63118852     0.32500
C919        C  0.86839826  0.29742308  0.60336943     0.01100
F920        F  0.87574169  0.29604947  0.70768411    -0.13200
F921        F  0.91021724  0.38115070  0.60441186    -0.13700
C922        C  0.88188876  0.27428847  0.59527053     0.16000
C923        C  0.87119887  0.25485223  0.56580545     0.25500
C924        C  0.84651167  0.25807281  0.54395683    -0.40800
C925        C  0.83316507  0.28155384  0.55183740     0.32400
C926        C  0.84410972  0.30106568  0.58106110     0.14100
F927        F  0.90576307  0.27074664  0.61516173    -0.13200
F928        F  0.80954166  0.28572404  0.53136702    -0.13700
F929        F  0.88507373  0.23274963  0.55934832    -0.16000
F930        F  0.83096517  0.32358039  0.58773198    -0.14500
F931        F  0.88676201  0.34215501  0.55659225    -0.14500
F932        F  0.89824306  0.33596923  0.75792888    -0.16000
C933        C  0.78849857  0.87457609  0.05411780     0.14100
C934        C  0.80310882  0.86221932  0.09076798     0.01100
C935        C  0.79751771  0.83641080  0.10293329     0.16000
C936        C  0.77724203  0.82323628  0.07961410     0.25500
C937        C  0.76181687  0.83580758  0.04401336    -0.40900
C938        C  0.76788062  0.86160293  0.03122344     0.32500
C939        C  0.82389572  0.87628572  0.11722948     0.01100
F940        F  0.81134693  0.82415138  0.13844928    -0.13200
F941        F  0.75338771  0.87455659  0.99759452    -0.13700
C942        C  0.81984252  0.88519589  0.16536477     0.16000
C943        C  0.84000874  0.89697606  0.19171044     0.25500
C944        C  0.86483114  0.89989928  0.17047309    -0.40800
C945        C  0.86844912  0.89154887  0.12138613     0.32400
C946        C  0.84817592  0.87988323  0.09521783     0.14100
F947        F  0.79635830  0.88212496  0.18713402    -0.13200
F948        F  0.89182146  0.89385863  0.09887659    -0.13700
F949        F  0.83526518  0.90494934  0.23840805    -0.16000
F950        F  0.85250273  0.87122931  0.04880045    -0.14500
F951        F  0.79361387  0.89955068  0.04186133    -0.14500
F952        F  0.77170311  0.79872719  0.09439560    -0.16000
C953        C  0.89473529  0.84045366  0.42046933     0.14100
C954        C  0.88572870  0.81784495  0.39772824     0.01100
C955        C  0.88995990  0.81430320  0.34716702     0.16000
C956        C  0.90151259  0.83391271  0.31896510     0.25500
C957        C  0.90877830  0.85755560  0.34099147    -0.40900
C958        C  0.90619890  0.86008933  0.39254724     0.32500
C959        C  0.87116420  0.79837599  0.42657246     0.01100
F960        F  0.88242363  0.79198504  0.32497233    -0.13200
F961        F  0.91409957  0.88191075  0.41611081    -0.13700
C962        C  0.84414911  0.79621046  0.42142603     0.16000
C963        C  0.83036188  0.77727023  0.44759258     0.25500
C964        C  0.84350790  0.75997814  0.47894832    -0.40800
C965        C  0.87051582  0.76293539  0.48522927     0.32400
C966        C  0.88414204  0.78201898  0.45945752     0.14100
F967        F  0.83121312  0.81225768  0.39042246    -0.13200
F968        F  0.88391000  0.74695179  0.51566115    -0.13700
F969        F  0.80444948  0.77498698  0.44012316    -0.16000
F970        F  0.91019196  0.78400575  0.46542258    -0.14500
F971        F  0.89147376  0.84394691  0.46955693    -0.14500
F972        F  0.90455426  0.83010953  0.26994282    -0.16000
C973        C  0.89628408  0.05395565  0.31637728     0.14100
C974        C  0.86917222  0.05319521  0.32104320     0.01100
C975        C  0.85557755  0.03215924  0.30112135     0.16000
C976        C  0.86892963  0.01134794  0.27982494     0.25500
C977        C  0.89635275  0.01092507  0.27876013    -0.40900
C978        C  0.90976960  0.03311248  0.29532209     0.32500
C979        C  0.85534906  0.07360176  0.34928245     0.01100
F980        F  0.82930618  0.03142873  0.30362020    -0.13200
F981        F  0.93604650  0.03417230  0.29367573    -0.13700
C982        C  0.85411032  0.09905539  0.33152916     0.16000
C983        C  0.84323587  0.11879762  0.36024929     0.25500
C984        C  0.83359084  0.11355772  0.40793694    -0.40800
C985        C  0.83371402  0.08764074  0.42450596     0.32400
C986        C  0.84448966  0.06792182  0.39543310     0.14100
F987        F  0.86385802  0.10487507  0.28650756    -0.13200
F988        F  0.82399118  0.08136023  0.46931888    -0.13700
F989        F  0.84306453  0.14321859  0.34171237    -0.16000
F990        F  0.84531129  0.04336782  0.41326887    -0.14500
F991        F  0.90984404  0.07429131  0.33483370    -0.14500
F992        F  0.85487963  0.99105486  0.26255762    -0.16000
C993        C  0.09504716  0.65208823  0.41314092     0.14100
C994        C  0.11311329  0.66942489  0.39321945     0.01100
C995        C  0.11942549  0.66778640  0.34305161     0.16000
C996        C  0.10832377  0.64846642  0.31346114     0.25500
C997        C  0.09089367  0.63043504  0.33387907    -0.40900
C998        C  0.08414190  0.63267915  0.38388809     0.32500
C999        C  0.12506703  0.68936460  0.42499500     0.01100
F1000       F  0.13662206  0.68466504  0.32301883    -0.13200
F1001       F  0.06711634  0.61585042  0.40461527    -0.13700
C1002       C  0.14957732  0.68536890  0.44611220     0.16000
C1003       C  0.16081065  0.70441263  0.47620850     0.25500
C1004       C  0.14758598  0.72780141  0.48583458    -0.40800
C1005       C  0.12260506  0.73125405  0.46520980     0.32400
C1006       C  0.11159386  0.71225085  0.43519189     0.14100
F1007       F  0.16267543  0.66304308  0.43724666    -0.13200
F1008       F  0.10900045  0.75346322  0.47235845    -0.13700
F1009       F  0.18479152  0.70010302  0.49499918    -0.16000
F1010       F  0.08787267  0.71644685  0.41507953    -0.14500
F1011       F  0.08836831  0.65367666  0.46132163    -0.14500
F1012       F  0.11566984  0.64655562  0.26566197    -0.16000
C1013       C  0.25906554  0.77400487  0.70450283     0.14100
C1014       C  0.24670611  0.75792435  0.73883043     0.01100
C1015       C  0.22068592  0.75079150  0.73069891     0.16000
C1016       C  0.20741847  0.75921849  0.68857887     0.25500
C1017       C  0.21998884  0.77480485  0.65351402    -0.40900
C1018       C  0.24589798  0.78238370  0.66241431     0.32500
C1019       C  0.26059971  0.74909932  0.78378351     0.01100
F1020       F  0.20836197  0.73492167  0.76290631    -0.13200
F1021       F  0.25859714  0.79801016  0.63025841    -0.13700
C1022       C  0.25054991  0.75517642  0.83027465     0.16000
C1023       C  0.26228578  0.74563353  0.87283938     0.25500
C1024       C  0.28460690  0.72989028  0.87008245    -0.40800
C1025       C  0.29547000  0.72479148  0.82364876     0.32400
C1026       C  0.28350259  0.73425127  0.78078686     0.14100
F1027       F  0.22923443  0.77045732  0.83447154    -0.13200
F1028       F  0.31684384  0.70960309  0.81957579    -0.13700
F1029       F  0.25170674  0.75185807  0.91701236    -0.16000
F1030       F  0.29369064  0.72805412  0.73630407    -0.14500
F1031       F  0.28387779  0.78184598  0.71197218    -0.14500
F1032       F  0.18271015  0.75111299  0.68107646    -0.16000
C1033       C  0.27804125  0.73451603  0.22615633     0.14100
C1034       C  0.25270555  0.72741432  0.23882583     0.01100
C1035       C  0.24107093  0.70595977  0.21588249     0.16000
C1036       C  0.25413504  0.69269535  0.17851219     0.25500
C1037       C  0.27886138  0.70094590  0.16354318    -0.40900
C1038       C  0.29105030  0.72137175  0.18882112     0.32500
C1039       C  0.23917109  0.74141636  0.27832413     0.01100
F1040       F  0.21664071  0.69863909  0.22823243    -0.13200
F1041       F  0.31518467  0.72931764  0.17573866    -0.13700
C1042       C  0.23238767  0.76770159  0.27335799     0.16000
C1043       C  0.22110301  0.78110216  0.31282070     0.25500
C1044       C  0.21649869  0.76826671  0.35756833    -0.40800
C1045       C  0.22346283  0.74180543  0.36185510     0.32400
C1046       C  0.23451509  0.72863726  0.32261683     0.14100
F1047       F  0.23683613  0.78033239  0.23041334    -0.13200
F1048       F  0.22084243  0.72869843  0.40488173    -0.13700
F1049       F  0.21490185  0.80649422  0.30736998    -0.16000
F1050       F  0.24181136  0.70354477  0.32861854    -0.14500
F1051       F  0.29001923  0.75441811  0.24959697    -0.14500
F1052       F  0.24182698  0.67321729  0.15446310    -0.16000
C1053       C  0.09009342  0.83756823  0.35289720     0.14100
C1054       C  0.07388114  0.85675261  0.37328897     0.01100
C1055       C  0.07680104  0.86286667  0.42357049     0.16000
C1056       C  0.09622013  0.85102290  0.45193401     0.25500
C1057       C  0.11284566  0.83245596  0.43089926    -0.40900
C1058       C  0.10898148  0.82530556  0.38153230     0.32500
C1059       C  0.05399845  0.87012925  0.34216580     0.01100
F1060       F  0.06096398  0.88046638  0.44533309    -0.13200
F1061       F  0.12395600  0.80670230  0.36052781    -0.13700
C1062       C  0.03712121  0.85563367  0.31221349     0.16000
C1063       C  0.01827354  0.86790511  0.28352575     0.25500
C1064       C  0.01496400  0.89500321  0.28531998    -0.40800
C1065       C  0.03218725  0.90965789  0.31431226     0.32400
C1066       C  0.05166886  0.89738635  0.34194692     0.14100
F1067       F  0.03803331  0.82934568  0.31218887    -0.13200
F1068       F  0.02943672  0.93574754  0.31791029    -0.13700
F1069       F  0.00276187  0.85303383  0.25471566    -0.16000
F1070       F  0.06816419  0.91222493  0.36875306    -0.14500
F1071       F  0.08849072  0.83137434  0.30449606    -0.14500
F1072       F  0.09959767  0.85874547  0.49922190    -0.16000
C1073       C  0.10933219  0.17017228  0.68448680     0.14100
C1074       C  0.10756965  0.17137381  0.63299326     0.01100
C1075       C  0.09201573  0.15346414  0.60805250     0.16000
C1076       C  0.07948745  0.13369112  0.63375491     0.25500
C1077       C  0.08235596  0.13135099  0.68518159    -0.40900
C1078       C  0.09679253  0.15029736  0.71051226     0.32500
C1079       C  0.12112907  0.19175270  0.60480966     0.01100
F1080       F  0.08936905  0.15487836  0.55846409    -0.13200
F1081       F  0.09987053  0.14888103  0.75999655    -0.13700
C1082       C  0.14658175  0.18805194  0.58777543     0.16000
C1083       C  0.15880623  0.20711762  0.55905527     0.25500
C1084       C  0.14559460  0.23014845  0.54666266    -0.40800
C1085       C  0.11977488  0.23330536  0.56344739     0.32400
C1086       C  0.10785326  0.21438111  0.59223862     0.14100
F1087       F  0.15952494  0.16592063  0.59892004    -0.13200
F1088       F  0.10586812  0.25490652  0.55266887    -0.13700
F1089       F  0.18356059  0.20309448  0.54397466    -0.16000
F1090       F  0.08316791  0.21817147  0.60802019    -0.14500
F1091       F  0.12357133  0.18797258  0.70937086    -0.14500
F1092       F  0.06494988  0.11645644  0.60799435    -0.16000
C1093       C  0.19053909  0.14654373  0.90429182     0.14100
C1094       C  0.18695456  0.12022683  0.91524194     0.01100
C1095       C  0.20264731  0.10843988  0.95087799     0.16000
C1096       C  0.22276052  0.12237888  0.97315239     0.25500
C1097       C  0.22735579  0.14848023  0.96036912    -0.40900
C1098       C  0.21041771  0.16064114  0.92687952     0.32500
C1099       C  0.16677910  0.10517359  0.88928916     0.01100
F1100       F  0.19901421  0.08316548  0.96285198    -0.13200
F1101       F  0.21397667  0.18575152  0.91363491    -0.13700
C1102       C  0.17069603  0.09685247  0.84070972     0.16000
C1103       C  0.15078237  0.08432701  0.81488249     0.25500
C1104       C  0.12644653  0.08006713  0.83722957    -0.40800
C1105       C  0.12311283  0.08772811  0.88680365     0.32400
C1106       C  0.14308981  0.10010696  0.91237007     0.14100
F1107       F  0.19369512  0.10135361  0.81798791    -0.13200
F1108       F  0.10010685  0.08444628  0.91022291    -0.13700
F1109       F  0.15516605  0.07711123  0.76761291    -0.16000
F1110       F  0.13892522  0.10819431  0.95920660    -0.14500
F1111       F  0.17507744  0.15843186  0.87080669    -0.14500
F1112       F  0.23813474  0.11013788  0.00633540    -0.16000
C1113       C  0.97062761  0.99414271  0.05331166     0.14100
C1114       C  0.99029132  0.98213860  0.02581673     0.01100
C1115       C  0.99931403  0.95757466  0.04062164     0.16000
C1116       C  0.98920008  0.94547936  0.08264341     0.25500
C1117       C  0.97003818  0.95784966  0.11092174    -0.40900
C1118       C  0.96065336  0.98218996  0.09537684     0.32500
C1119       C  0.00093675  0.99495554  0.98114839     0.01100
F1120       F  0.01862330  0.94568709  0.01530668    -0.13200
F1121       F  0.94176316  0.99454809  0.12109652    -0.13700
C1122       C  0.01148776  0.02011182  0.98329865     0.16000
C1123       C  0.02093944  0.03220980  0.94066407     0.25500
C1124       C  0.02028639  0.01926636  0.89508752    -0.40800
C1125       C  0.01000836  0.99389366  0.89342034     0.32400
C1126       C  0.00023611  0.98208283  0.93575986     0.14100
F1127       F  0.01294354  0.03286568  0.02686312    -0.13200
F1128       F  0.00862549  0.98058156  0.85044505    -0.13700
F1129       F  0.03107580  0.05640631  0.94421258    -0.16000
F1130       F  0.98929885  0.95822908  0.93207285    -0.14500
F1131       F  0.96088631  0.01742918  0.03922639    -0.14500
F1132       F  0.99913473  0.92234337  0.09703395    -0.16000
C1133       C  0.02656550  0.00777329  0.52025472     0.14100
C1134       C  0.99947180  0.01023533  0.51500994     0.01100
C1135       C  0.98582120  0.02587063  0.54838119     0.16000
C1136       C  0.99863888  0.03772007  0.58729804     0.25500
C1137       C  0.02516677  0.03290959  0.59588127    -0.40900
C1138       C  0.03923647  0.01854697  0.56096622     0.32500
C1139       C  0.98507731  0.99533788  0.47711870     0.01100
F1140       F  0.95965207  0.02830008  0.54560633    -0.13200
F1141       F  0.06481828  0.01351204  0.56767046    -0.13700
C1142       C  0.98953886  0.96858372  0.47117049     0.16000
C1143       C  0.97609979  0.95460780  0.43539722     0.25500
C1144       C  0.95700132  0.96674115  0.40684768    -0.40800
C1145       C  0.95155997  0.99305777  0.41428017     0.32400
C1146       C  0.96594758  0.00742605  0.44810802     0.14100
F1147       F  0.00701043  0.95593445  0.49973144    -0.13200
F1148       F  0.93385441  0.00537126  0.38576032    -0.13700
F1149       F  0.98228200  0.92937353  0.42743813    -0.16000
F1150       F  0.96202290  0.03340597  0.45068614    -0.14500
F1151       F  0.04066039  0.99421421  0.48685616    -0.14500
F1152       F  0.98454046  0.05273702  0.61833162    -0.16000
C1153       C  0.91791459  0.12273777  0.59187673     0.14100
C1154       C  0.91805287  0.12710008  0.64294894     0.01100
C1155       C  0.89946991  0.14368735  0.66358846     0.16000
C1156       C  0.88051740  0.15509248  0.63407968     0.25500
C1157       C  0.87979979  0.15021844  0.58314348    -0.40900
C1158       C  0.89902441  0.13438049  0.56208102     0.32500
C1159       C  0.93755763  0.11455753  0.67502937     0.01100
F1160       F  0.89916004  0.14815124  0.71277823    -0.13200
F1161       F  0.89875111  0.12910508  0.51318344    -0.13700
C1162       C  0.95512302  0.12979414  0.70173607     0.16000
C1163       C  0.97393915  0.11816762  0.73134405     0.25500
C1164       C  0.97561728  0.09094895  0.73492540    -0.40800
C1165       C  0.95700695  0.07575357  0.71016287     0.32400
C1166       C  0.93834518  0.08748735  0.68007318     0.14100
F1167       F  0.95462582  0.15601011  0.69772324    -0.13200
F1168       F  0.95758792  0.04950387  0.71300041    -0.13700
F1169       F  0.99095432  0.13368284  0.75551272    -0.16000
F1170       F  0.92114868  0.07237940  0.65546223    -0.14500
F1171       F  0.93593918  0.10703979  0.57099775    -0.14500
F1172       F  0.86255800  0.17066761  0.65552922    -0.16000
C1173       C  0.12876398  0.95116132  0.69453272     0.14100
C1174       C  0.11824434  0.93798000  0.65398735     0.01100
C1175       C  0.09271916  0.94353033  0.63926475     0.16000
C1176       C  0.07819802  0.96241629  0.66397966     0.25500
C1177       C  0.08905280  0.97617056  0.70378722    -0.40900
C1178       C  0.11430476  0.96996062  0.71927678     0.32500
C1179       C  0.13374783  0.91791860  0.62828491     0.01100
F1180       F  0.08190801  0.93079635  0.60068493    -0.13200
F1181       F  0.12529558  0.98259710  0.75776569    -0.13700
C1182       C  0.14351490  0.89678018  0.65480400     0.16000
C1183       C  0.15759191  0.87734709  0.63117483     0.25500
C1184       C  0.16181254  0.87825099  0.57988315    -0.40800
C1185       C  0.15270706  0.89999170  0.55355344     0.32400
C1186       C  0.13886119  0.91964741  0.57760602     0.14100
F1187       F  0.13846525  0.89436727  0.70358620    -0.13200
F1188       F  0.15630008  0.90188653  0.50423626    -0.13700
F1189       F  0.16618719  0.85713104  0.65861832    -0.16000
F1190       F  0.13026516  0.94028678  0.55130744    -0.14500
F1191       F  0.15347231  0.94644485  0.70914966    -0.14500
F1192       F  0.05411564  0.96822420  0.64710677    -0.16000
C1193       C  0.35599049  0.80109914  0.08415824     0.14100
C1194       C  0.37793949  0.79398728  0.11172185     0.01100
C1195       C  0.38662405  0.76833214  0.11044843     0.16000
C1196       C  0.37388506  0.75005106  0.08136257     0.25500
C1197       C  0.35196779  0.75706885  0.05305068    -0.40900
C1198       C  0.34300570  0.78277367  0.05522323     0.32500
C1199       C  0.39269225  0.81381333  0.13910550     0.01100
F1200       F  0.40786817  0.76110689  0.13653054    -0.13200
F1201       F  0.32205768  0.79032853  0.02867439    -0.13700
C1202       C  0.39411134  0.81345697  0.19071046     0.16000
C1203       C  0.40587552  0.83400569  0.21605390     0.25500
C1204       C  0.41627440  0.85518409  0.18992427    -0.40800
C1205       C  0.41684025  0.85406204  0.13805165     0.32400
C1206       C  0.40501817  0.83368404  0.11307899     0.14100
F1207       F  0.38300474  0.79388424  0.21654430    -0.13200
F1208       F  0.42806143  0.87316167  0.11109854    -0.13700
F1209       F  0.40586896  0.83373946  0.26595485    -0.16000
F1210       F  0.40507107  0.83361707  0.06315561    -0.14500
F1211       F  0.34720483  0.82588901  0.08529362    -0.14500
F1212       F  0.38290044  0.72532682  0.08163126    -0.16000
C1213       C  0.49376534  0.99608676  0.57717647     0.14100
C1214       C  0.50021998  0.00713195  0.53169382     0.01100
C1215       C  0.51470948  0.03026874  0.53076639     0.16000
C1216       C  0.52304415  0.04181140  0.57477445     0.25500
C1217       C  0.51727158  0.03018933  0.62024315    -0.40900
C1218       C  0.50229706  0.00733993  0.62087850     0.32500
C1219       C  0.49155068  0.99430041  0.48570658     0.01100
F1220       F  0.52147336  0.04122063  0.48725120    -0.13200
F1221       F  0.49563119  0.99590449  0.66403256    -0.13700
C1222       C  0.47540405  0.00739939  0.45249027     0.16000
C1223       C  0.46593464  0.99475974  0.41069576     0.25500
C1224       C  0.47237461  0.96864237  0.40123249    -0.40800
C1225       C  0.48861670  0.95556595  0.43460466     0.32400
C1226       C  0.49819425  0.96832459  0.47625069     0.14100
F1227       F  0.46824897  0.03229878  0.46116164    -0.13200
F1228       F  0.49592859  0.93068247  0.42626500    -0.13700
F1229       F  0.45010903  0.00807036  0.37983619    -0.16000
F1230       F  0.51433785  0.95540300  0.50711461    -0.14500
F1231       F  0.47889653  0.97440248  0.57929028    -0.14500
F1232       F  0.53764440  0.06366592  0.57282513    -0.16000
C1233       C  0.47037988  0.98134560  0.02592151     0.14100
C1234       C  0.49771280  0.98293150  0.02625051     0.01100
C1235       C  0.51139479  0.97094243  0.06437995     0.16000
C1236       C  0.49832187  0.95800734  0.10159189     0.25500
C1237       C  0.47089254  0.95819984  0.10405870    -0.40900
C1238       C  0.45703745  0.96948528  0.06500757     0.32500
C1239       C  0.51223953  0.99763352  0.98820571     0.01100
F1240       F  0.53760507  0.97292694  0.06737526    -0.13200
F1241       F  0.43073877  0.96987853  0.06536336    -0.13700
C1242       C  0.50532865  0.02329703  0.97679175     0.16000
C1243       C  0.51865541  0.03685740  0.94024064     0.25500
C1244       C  0.53959160  0.02529176  0.91541254    -0.40800
C1245       C  0.54780877  0.00046621  0.92939339     0.32400
C1246       C  0.53390183  0.98650642  0.96459383     0.14100
F1247       F  0.48548533  0.03518039  0.00060327    -0.13200
F1248       F  0.56789221  0.98880183  0.90594126    -0.13700
F1249       F  0.51048825  0.06098293  0.92765357    -0.16000
F1250       F  0.54084406  0.96158637  0.97366227    -0.14500
F1251       F  0.45659186  0.99162575  0.98817239    -0.14500
F1252       F  0.51295754  0.94640519  0.13671515    -0.16000
C1253       C  0.35996711  0.07285585  0.08786446     0.14100
C1254       C  0.35786377  0.07174079  0.13938817     0.01100
C1255       C  0.34165344  0.08972761  0.16326732     0.16000
C1256       C  0.32906122  0.10929933  0.13645333     0.25500
C1257       C  0.33238500  0.11131848  0.08510621    -0.40900
C1258       C  0.34741984  0.09233624  0.06104701     0.32500
C1259       C  0.37299317  0.05204001  0.16765707     0.01100
F1260       F  0.33882271  0.08903945  0.21286033    -0.13200
F1261       F  0.35116915  0.09328696  0.01167529    -0.13700
C1262       C  0.40006520  0.05022607  0.16190943     0.16000
C1263       C  0.41412196  0.03014234  0.18425082     0.25500
C1264       C  0.40146399  0.01139849  0.21334546    -0.40800
C1265       C  0.37449423  0.01412261  0.22114506     0.32400
C1266       C  0.36047815  0.03414151  0.19851049     0.14100
F1267       F  0.41289806  0.06766871  0.13356274    -0.13200
F1268       F  0.36135427  0.99680886  0.24927261    -0.13700
F1269       F  0.43990032  0.02828312  0.17488851    -0.16000
F1270       F  0.33438527  0.03515935  0.20470531    -0.14500
F1271       F  0.37453156  0.05514933  0.06336407    -0.14500
F1272       F  0.31397808  0.12657313  0.16094168    -0.16000
C1273       C  0.29757202  0.87205450  0.46273122     0.14100
C1274       C  0.31252028  0.86009313  0.42582263     0.01100
C1275       C  0.30724119  0.83409673  0.41367627     0.16000
C1276       C  0.28592227  0.82125397  0.43417919     0.25500
C1277       C  0.26964976  0.83398972  0.46801593    -0.40900
C1278       C  0.27639151  0.85911483  0.48365926     0.32500
C1279       C  0.33192111  0.87526125  0.39700965     0.01100
F1280       F  0.32216856  0.82140114  0.38034642    -0.13200
F1281       F  0.26179345  0.87162056  0.51775851    -0.13700
C1282       C  0.35135270  0.88980093  0.42049285     0.16000
C1283       C  0.36915475  0.90427360  0.39291589     0.25500
C1284       C  0.36849653  0.90396543  0.34095693    -0.40800
C1285       C  0.34877069  0.88966898  0.31759929     0.32400
C1286       C  0.33059170  0.87576305  0.34528327     0.14100
F1287       F  0.35376084  0.88928657  0.47018720    -0.13200
F1288       F  0.34758477  0.88817145  0.26783276    -0.13700
F1289       F  0.38748009  0.91809234  0.41734160    -0.16000
F1290       F  0.31160058  0.86266773  0.32128593    -0.14500
F1291       F  0.30235076  0.89690128  0.47633699    -0.14500
F1292       F  0.28008652  0.79708819  0.41782543    -0.16000
C1293       C  0.57435713  0.86402277  0.09792821     0.14100
C1294       C  0.57285116  0.85719123  0.14794359     0.01100
C1295       C  0.58850127  0.83702418  0.16575141     0.16000
C1296       C  0.60600682  0.82452330  0.13465187     0.25500
C1297       C  0.60827863  0.83193370  0.08500562    -0.40900
C1298       C  0.59194284  0.85146237  0.06662378     0.32500
C1299       C  0.55467597  0.87065244  0.18157140     0.01100
F1300       F  0.58758208  0.83012627  0.21389634    -0.13200
F1301       F  0.59421141  0.85957950  0.01934990    -0.13700
C1302       C  0.53546918  0.85643714  0.20600303     0.16000
C1303       C  0.51753797  0.86890018  0.23618723     0.25500
C1304       C  0.51800427  0.89614857  0.24201582    -0.40800
C1305       C  0.53829020  0.91018716  0.21980185     0.32400
C1306       C  0.55640950  0.89751954  0.18968168     0.14100
F1307       F  0.53330989  0.83047767  0.19885373    -0.13200
F1308       F  0.54002042  0.93625034  0.22544053    -0.13700
F1309       F  0.49901437  0.85415752  0.25803665    -0.16000
F1310       F  0.57550305  0.91152193  0.16793636    -0.14500
F1311       F  0.55903219  0.88309599  0.07961274    -0.14500
F1312       F  0.62146590  0.80569342  0.15355963    -0.16000
loop_ 
_geom_bond_atom_site_label_1 
_geom_bond_atom_site_label_2 
_geom_bond_distance 
_geom_bond_site_symmetry_2 
_ccdc_geom_bond_type 
O1          Cr19   2.032       .  S
O1            C9   1.272       .  A
O2          Cr19   1.932       .  S
O2            C3   1.246       .  A
C3            O4   1.273       .  A
C3         C1237   1.489       .  S
O4          Cr20   2.058       .  S
O5          Cr20   1.956       .  S
O5            C6   1.256       .  A
C6            O7   1.271       .  A
C6         C1204   1.485       .  S
O7          Cr21   2.035       .  S
O8          Cr21   1.944       .  S
O8            C9   1.253       .  A
C9         C1304   1.490       .  S
O10         Cr19   1.958       .  S
O10          C18   1.257       .  A
O11         Cr19   2.046       .  S
O11          C12   1.276       .  A
C12          O13   1.259       .  A
C12        C1264   1.497   1_565  S
O13         Cr20   1.964       .  S
O14         Cr20   2.046       .  S
O14          C15   1.277       .  A
C15          O16   1.258       .  A
C15        C1284   1.492       .  S
O16         Cr21   1.958       .  S
O17         Cr21   2.034       .  S
O17          C18   1.273       .  A
C18        C1224   1.486       .  S
Cr19         O22   1.753       .  S
Cr20         O22   1.761       .  S
Cr21         O22   1.764       .  S
O23         Cr41   2.014   1_655  S
O23          C31   1.266       .  A
O24         Cr41   1.946       .  S
O24          C25   1.253       .  A
C25          O26   1.271       .  A
C25        C1137   1.481       .  S
O26         Cr42   2.038       .  S
O27         Cr42   1.954       .  S
O27          C28   1.255       .  A
C28          O29   1.272       .  A
C28        C1077   1.485       .  S
O29         Cr43   2.039       .  S
O30         Cr43   1.966       .  S
O30          C31   1.258   1_455  A
C31        C1164   1.487       .  S
O32         Cr41   1.959       .  S
O32          C40   1.259       .  A
O33         Cr41   2.026       .  S
O33          C34   1.269   1_545  A
C34          O35   1.258   1_565  A
C34        C1177   1.480       .  S
O35         Cr42   1.963       .  S
O36         Cr42   2.034       .  S
O36          C37   1.273       .  A
C37          O38   1.259       .  A
C37        C1104   1.493       .  S
O38         Cr43   1.964       .  S
O39         Cr43   2.041       .  S
O39          C40   1.276       .  A
C40        C1124   1.491       .  S
Cr41         O44   1.761       .  S
Cr42         O44   1.760       .  S
Cr43         O44   1.765       .  S
O45         Cr63   2.018       .  S
O45          C53   1.269       .  A
O46         Cr63   1.937       .  S
O46          C47   1.247       .  A
C47          O48   1.272       .  A
C47        C1044   1.481       .  S
O48         Cr64   2.049       .  S
O49         Cr64   1.968       .  S
O49          C50   1.260       .  A
C50          O51   1.273       .  A
C50        C1057   1.485       .  S
O51         Cr65   2.039       .  S
O52         Cr65   1.961       .  S
O52          C53   1.255       .  A
C53        C1004   1.493       .  S
O54         Cr63   1.953       .  S
O54          C62   1.255       .  A
O55         Cr63   2.030       .  S
O55          C56   1.272       .  A
C56          O57   1.260       .  A
C56        C1277   1.485       .  S
O57         Cr64   1.972       .  S
O58         Cr64   2.034       .  S
O58          C59   1.274       .  A
C59          O60   1.259       .  A
C59        C1184   1.489       .  S
O60         Cr65   1.959       .  S
O61         Cr65   2.048       .  S
O61          C62   1.276       .  A
C62        C1017   1.489       .  S
Cr63         O66   1.754       .  S
Cr64         O66   1.763       .  S
Cr65         O66   1.763       .  S
O67         Cr85   1.964       .  S
O67          C75   1.256       .  A
O68         Cr85   2.037       .  S
O68          C69   1.273       .  A
C69          O70   1.258       .  A
C69         C957   1.491       .  S
O70         Cr86   1.958       .  S
O71         Cr86   2.034       .  S
O71          C72   1.269       .  A
C72          O73   1.250       .  A
C72        C1144   1.462       .  S
O73         Cr87   1.950       .  S
O74         Cr87   2.027       .  S
O74          C75   1.269       .  A
C75        C1064   1.491   1_655  S
O76         Cr85   2.043       .  S
O76          C84   1.275       .  A
O77         Cr85   1.973       .  S
O77          C78   1.260       .  A
C78          O79   1.271       .  A
C78         C944   1.496       .  S
O79         Cr86   2.028       .  S
O80         Cr86   1.968       .  S
O80          C81   1.259       .  A
C81          O82   1.274       .  A
C81         C977   1.496   1_565  S
O82         Cr87   2.040       .  S
O83         Cr87   1.951       .  S
O83          C84   1.256       .  A
C84        C1117   1.484       .  S
Cr85         O88   1.765       .  S
Cr86         O88   1.762       .  S
Cr87         O88   1.761       .  S
O89        Cr107   1.962       .  S
O89          C97   1.257       .  A
O90        Cr107   2.036       .  S
O90          C91   1.273       .  A
C91          O92   1.257       .  A
C91        C1157   1.479       .  S
O92        Cr108   1.956       .  S
O93        Cr108   2.046       .  S
O93          C94   1.272       .  A
C94          O95   1.252       .  A
C94         C897   1.468       .  S
O95        Cr109   1.955       .  S
O96        Cr109   2.021       .  S
O96          C97   1.269       .  A
C97         C924   1.490       .  S
O98        Cr107   2.042       .  S
O98         C106   1.274       .  A
O99        Cr107   1.969       .  S
O99         C100   1.260       .  A
C100        O101   1.273       .  A
C100        C984   1.496       .  S
O101       Cr108   2.035       .  S
O102       Cr108   1.957       .  S
O102        C103   1.255       .  A
C103        O104   1.271       .  A
C103        C857   1.485       .  S
O104       Cr109   2.037       .  S
O105       Cr109   1.947       .  S
O105        C106   1.255       .  A
C106        C877   1.486       .  S
Cr107       O110   1.765       .  S
Cr108       O110   1.755       .  S
Cr109       O110   1.760       .  S
O111       Cr129   1.951       .  S
O111        C119   1.253       .  A
O112       Cr129   2.042       .  S
O112        C113   1.274       .  A
C113        O114   1.256       .  A
C113        C824   1.495       .  S
O114       Cr130   1.960       .  S
O115       Cr130   2.038       .  S
O115        C116   1.271       .  A
C116        O117   1.252       .  A
C116        C804   1.466       .  S
O117       Cr131   1.948       .  S
O118       Cr131   2.031       .  S
O118        C119   1.270       .  A
C119       C1084   1.494       .  S
O120       Cr129   2.047       .  S
O120        C128   1.275       .  A
O121       Cr129   1.954       .  S
O121        C122   1.256       .  A
C122        O123   1.274       .  A
C122        C844   1.493       .  S
O123       Cr130   2.041       .  S
O124       Cr130   1.976       .  S
O124        C125   1.261       .  A
C125        O126   1.272       .  A
C125        C764   1.496       .  S
O126       Cr131   2.030       .  S
O127       Cr131   1.954       .  S
O127        C128   1.256       .  A
C128        C784   1.483       .  S
Cr129       O132   1.762       .  S
Cr130       O132   1.764       .  S
Cr131       O132   1.759       .  S
O133       Cr151   1.971       .  S
O133        C141   1.258       .  A
O134       Cr151   2.038       .  S
O134        C135   1.273       .  A
C135        O136   1.258       .  A
C135        C997   1.481       .  S
O136       Cr152   1.961       .  S
O137       Cr152   2.052       .  S
O137        C138   1.274       .  A
C138        O139   1.251       .  A
C138        C724   1.477       .  S
O139       Cr153   1.957       .  S
O140       Cr153   2.021       .  S
O140        C141   1.270       .  A
C141        C677   1.493   1_455  S
O142       Cr151   2.041       .  S
O142        C150   1.274       .  A
O143       Cr151   1.969       .  S
O143        C144   1.259       .  A
C144        O145   1.275       .  A
C144        C744   1.491       .  S
O145       Cr152   2.042       .  S
O146       Cr152   1.960       .  S
O146        C147   1.256       .  A
C147        O148   1.273       .  A
C147        C837   1.490       .  S
O148       Cr153   2.040       .  S
O149       Cr153   1.955       .  S
O149        C150   1.257       .  A
C150        C704   1.485       .  S
Cr151       O154   1.766       .  S
Cr152       O154   1.758       .  S
Cr153       O154   1.760       .  S
O155       Cr173   2.015       .  S
O155        C163   1.267       .  A
O156       Cr173   1.943       .  S
O156        C157   1.251       .  A
C157        O158   1.276       .  A
C157        C717   1.491       .  S
O158       Cr174   2.057       .  S
O159       Cr174   1.949       .  S
O159        C160   1.255       .  A
C160        O161   1.275       .  A
C160        C917   1.493       .  S
O161       Cr175   2.049       .  S
O162       Cr175   1.972       .  S
O162        C163   1.257       .  A
C163        C817   1.491   1_655  S
O164       Cr173   1.949       .  S
O164        C172   1.254       .  A
O165       Cr173   2.019       .  S
O165        C166   1.269       .  A
C166        O167   1.257       .  A
C166        C644   1.481       .  S
O167       Cr174   1.964       .  S
O168       Cr174   2.040       .  S
O168        C169   1.274       .  A
C169        O170   1.259       .  A
C169        C664   1.495       .  S
O170       Cr175   1.964       .  S
O171       Cr175   2.053       .  S
O171        C172   1.279       .  A
C172        C697   1.493       .  S
Cr173       O176   1.756       .  S
Cr174       O176   1.759       .  S
Cr175       O176   1.762       .  S
O177       Cr195   1.955   1_554  S
O177        C185   1.253       .  A
O178       Cr195   2.042   1_554  S
O178        C179   1.274       .  A
C179        O180   1.256       .  A
C179        C624   1.484       .  S
O180       Cr196   1.953       .  S
O181       Cr196   2.035       .  S
O181        C182   1.268       .  A
C182        O183   1.250       .  A
C182       C1037   1.467       .  S
O183       Cr197   1.949       .  S
O184       Cr197   2.020       .  S
O184        C185   1.268       .  A
C185       C1197   1.484       .  S
O186       Cr195   2.044       .  S
O186        C194   1.276       .  A
O187       Cr195   1.961       .  S
O187        C188   1.256       .  A
C188        O189   1.273       .  A
C188        C604   1.491       .  S
O189       Cr196   2.030   1_556  S
O190       Cr196   1.969       .  S
O190        C191   1.260       .  A
C191        O192   1.274       .  A
C191        C737   1.494       .  S
O192       Cr197   2.035       .  S
O193       Cr197   1.951   1_556  S
O193        C194   1.257       .  A
C194       C1024   1.487       .  S
Cr195       O198   1.766   1_556  S
Cr196       O198   1.763       .  S
Cr197       O198   1.759       .  S
O199       Cr217   2.014   1_554  S
O199        C207   1.268       .  A
O200       Cr217   1.952       .  S
O200        C201   1.252       .  A
C201        O202   1.271       .  A
C201        C904   1.477       .  S
O202       Cr218   2.038       .  S
O203       Cr218   1.953       .  S
O203        C204   1.255       .  A
C204        O205   1.273   1_556  A
C204        C537   1.491       .  S
O205       Cr219   2.043       .  S
O206       Cr219   1.956       .  S
O206        C207   1.256       .  A
C207        C577   1.478   1_554  S
O208       Cr217   1.953   1_554  S
O208        C216   1.255       .  A
O209       Cr217   2.026       .  S
O209        C210   1.270       .  A
C210        O211   1.259       .  A
C210        C657   1.488       .  S
O211       Cr218   1.963       .  S
O212       Cr218   2.031   1_554  S
O212        C213   1.272       .  A
C213        O214   1.259       .  A
C213        C557   1.486       .  S
O214       Cr219   1.961       .  S
O215       Cr219   2.039       .  S
O215        C216   1.275       .  A
C216        C884   1.483       .  S
Cr217       O220   1.758   1_556  S
Cr218       O220   1.754   1_556  S
Cr219       O220   1.766       .  S
O221       Cr239   1.954       .  S
O221        C229   1.255       .  A
O222       Cr239   2.043       .  S
O222        C223   1.276       .  A
C223        O224   1.257       .  A
C223        C524   1.488       .  S
O224       Cr240   1.958       .  S
O225       Cr240   2.039       .  S
O225        C226   1.269       .  A
C226        O227   1.250       .  A
C226        C504   1.463       .  S
O227       Cr241   1.950       .  S
O228       Cr241   2.025       .  S
O228        C229   1.270       .  A
C229        C544   1.480       .  S
O230       Cr239   2.041       .  S
O230        C238   1.274       .  A
O231       Cr239   1.963       .  S
O231        C232   1.256       .  A
C232        O233   1.272       .  A
C232        C757   1.488       .  S
O233       Cr240   2.033       .  S
O234       Cr240   1.963       .  S
O234        C235   1.259       .  A
C235        O236   1.272       .  A
C235        C597   1.490       .  S
O236       Cr241   2.036       .  S
O237       Cr241   1.947       .  S
O237        C238   1.255       .  A
C238        C484   1.483       .  S
Cr239       O242   1.766       .  S
Cr240       O242   1.762       .  S
Cr241       O242   1.761       .  S
O243       Cr261   2.020   1_554  S
O243        C251   1.269       .  A
O244       Cr261   1.939       .  S
O244        C245   1.249       .  A
C245        O246   1.271       .  A
C245        C797   1.482       .  S
O246       Cr262   2.039       .  S
O247       Cr262   1.962       .  S
O247        C248   1.256       .  A
C248        O249   1.270   1_556  A
C248        C457   1.480       .  S
O249       Cr263   2.032       .  S
O250       Cr263   1.967       .  S
O250        C251   1.257       .  A
C251        C517   1.494   1_554  S
O252       Cr261   1.957   1_554  S
O252        C260   1.257       .  A
O253       Cr261   2.027       .  S
O253        C254   1.271       .  A
C254        O255   1.258       .  A
C254       C1097   1.485       .  S
O255       Cr262   1.966       .  S
O256       Cr262   2.032   1_554  S
O256        C257   1.274       .  A
C257        O258   1.263       .  A
C257       C1257   1.493       .  S
O258       Cr263   1.976       .  S
O259       Cr263   2.042       .  S
O259        C260   1.275       .  A
C260        C777   1.490       .  S
Cr261       O264   1.761   1_556  S
Cr262       O264   1.761   1_556  S
Cr263       O264   1.768       .  S
O265       Cr283   1.968       .  S
O265        C273   1.256       .  A
O266       Cr283   2.035       .  S
O266        C267   1.272       .  A
C267        O268   1.255       .  A
C267        C584   1.477       .  S
O268       Cr284   1.946       .  S
O269       Cr284   2.036       .  S
O269        C270   1.270       .  A
C270        O271   1.252       .  A
C270       C1244   1.469       .  S
O271       Cr285   1.953       .  S
O272       Cr285   2.015       .  S
O272        C273   1.266       .  A
C273        C464   1.487       .  S
O274       Cr283   2.037       .  S
O274        C282   1.275       .  A
O275       Cr283   1.963       .  S
O275        C276   1.257       .  A
C276        O277   1.271       .  A
C276        C864   1.491       .  S
O277       Cr284   2.028       .  S
O278       Cr284   1.968       .  S
O278        C279   1.259   1_545  A
C279        O280   1.273   1_565  A
C279        C444   1.493       .  S
O280       Cr285   2.033       .  S
O281       Cr285   1.951       .  S
O281        C282   1.258       .  A
C282       C1217   1.482       .  S
Cr283       O286   1.766       .  S
Cr284       O286   1.762       .  S
Cr285       O286   1.758       .  S
O287       Cr305   1.966   1_554  S
O287        C295   1.256       .  A
O288       Cr305   2.042   1_554  S
O288        C289   1.273       .  A
C289        O290   1.254       .  A
C289       C1297   1.477       .  S
O290       Cr306   1.951       .  S
O291       Cr306   2.050       .  S
O291        C292   1.272       .  A
C292        O293   1.248       .  A
C292        C417   1.471       .  S
O293       Cr307   1.941       .  S
O294       Cr307   2.021   1_556  S
O294        C295   1.269   1_556  A
C295        C377   1.490       .  S
O296       Cr305   2.050       .  S
O296        C304   1.277       .  A
O297       Cr305   1.958       .  S
O297        C298   1.258       .  A
C298        O299   1.277       .  A
C298        C437   1.493       .  S
O299       Cr306   2.045   1_556  S
O300       Cr306   1.967       .  S
O300        C301   1.259       .  A
C301        O302   1.272       .  A
C301        C937   1.488       .  S
O302       Cr307   2.033       .  S
O303       Cr307   1.953   1_556  S
O303        C304   1.257       .  A
C304        C397   1.489       .  S
Cr305       O308   1.763   1_556  S
Cr306       O308   1.763       .  S
Cr307       O308   1.752       .  S
O309       Cr327   2.028       .  S
O309        C317   1.271       .  A
O310       Cr327   1.939       .  S
O310        C311   1.250       .  A
C311        O312   1.270       .  A
C311        C424   1.469       .  S
O312       Cr328   2.039       .  S
O313       Cr328   1.962       .  S
O313        C314   1.257       .  A
C314        O315   1.276       .  A
C314        C684   1.492       .  S
O315       Cr329   2.050       .  S
O316       Cr329   1.957       .  S
O316        C317   1.256       .  A
C317        C964   1.486       .  S
O318       Cr327   1.955       .  S
O318        C326   1.256       .  A
O319       Cr327   2.037       .  S
O319        C320   1.273       .  A
C320        O321   1.256       .  A
C320        C357   1.491       .  S
O321       Cr328   1.962       .  S
O322       Cr328   2.026       .  S
O322        C323   1.272       .  A
C323        O324   1.256       .  A
C323        C637   1.483       .  S
O324       Cr329   1.957       .  S
O325       Cr329   2.051       .  S
O325        C326   1.276       .  A
C326        C404   1.494       .  S
Cr327       O330   1.757       .  S
Cr328       O330   1.763       .  S
Cr329       O330   1.762       .  S
O331       Cr349   2.015       .  S
O331        C339   1.267       .  A
O332       Cr349   1.946       .  S
O332        C333   1.254       .  A
C333        O334   1.271       .  A
C333        C497   1.473       .  S
O334       Cr350   2.036       .  S
O335       Cr350   1.953       .  S
O335        C336   1.255       .  A
C336        O337   1.273       .  A
C336        C384   1.484       .  S
O337       Cr351   2.043       .  S
O338       Cr351   1.967       .  S
O338        C339   1.258       .  A
C339        C617   1.481       .  S
O340       Cr349   1.956       .  S
O340        C348   1.257       .  A
O341       Cr349   2.024       .  S
O341        C342   1.268       .  A
C342        O343   1.256       .  A
C342        C564   1.485       .  S
O343       Cr350   1.963       .  S
O344       Cr350   2.029       .  S
O344        C345   1.272       .  A
C345        O346   1.259       .  A
C345        C364   1.488       .  S
O346       Cr351   1.966       .  S
O347       Cr351   2.041       .  S
O347        C348   1.275       .  A
C348        C477   1.481       .  S
Cr349       O352   1.760       .  S
Cr350       O352   1.758       .  S
Cr351       O352   1.765       .  S
C353        C354   1.404       .  A
C353        C358   1.399       .  A
C353        F371   1.358       .  S
C354        C359   1.481       .  S
C354        C355   1.402       .  A
C355        C356   1.401       .  A
C355        F360   1.358       .  S
C356        C357   1.416       .  A
C356        F372   1.358       .  S
C357        C358   1.410       .  A
C358        F361   1.357       .  S
C359        C362   1.405       .  A
C359        C366   1.402       .  A
C362        C363   1.400       .  A
C362        F367   1.358       .  S
C363        C364   1.410       .  A
C363        F369   1.358       .  S
C364        C365   1.413       .  A
C365        C366   1.400       .  A
C365        F368   1.358       .  S
C366        F370   1.358       .  S
C373        C374   1.407       .  A
C373        C378   1.404       .  A
C373        F391   1.358       .  S
C374        C379   1.486       .  S
C374        C375   1.404       .  A
C375        C376   1.399       .  A
C375        F380   1.358       .  S
C376        C377   1.413       .  A
C376        F392   1.358       .  S
C377        C378   1.410       .  A
C378        F381   1.358       .  S
C379        C382   1.408       .  A
C379        C386   1.404       .  A
C382        C383   1.405       .  A
C382        F387   1.358       .  S
C383        C384   1.408       .  A
C383        F389   1.358       .  S
C384        C385   1.411       .  A
C385        C386   1.397       .  A
C385        F388   1.359       .  S
C386        F390   1.358       .  S
C393        C394   1.404       .  A
C393        C398   1.400       .  A
C393        F411   1.358       .  S
C394        C399   1.494       .  S
C394        C395   1.412       .  A
C395        C396   1.406       .  A
C395        F400   1.358       .  S
C396        C397   1.407       .  A
C396        F412   1.358       .  S
C397        C398   1.412       .  A
C398        F401   1.358       .  S
C399        C402   1.412       .  A
C399        C406   1.402       .  A
C402        C403   1.409       .  A
C402        F407   1.358       .  S
C403        C404   1.408       .  A
C403        F409   1.357       .  S
C404        C405   1.414       .  A
C405        C406   1.397       .  A
C405        F408   1.358       .  S
C406        F410   1.358       .  S
C413        C414   1.395       .  A
C413        C418   1.388       .  A
C413        F431   1.359       .  S
C414        C419   1.469       .  S
C414        C415   1.408       .  A
C415        C416   1.404       .  A
C415        F420   1.357       .  S
C416        C417   1.403       .  A
C416        F432   1.357       .  S
C417        C418   1.412       .  A
C418        F421   1.359       .  S
C419        C422   1.399       .  A
C419        C426   1.406       .  A
C422        C423   1.393       .  A
C422        F427   1.358       .  S
C423        C424   1.409       .  A
C423        F429   1.359       .  S
C424        C425   1.405       .  A
C425        C426   1.399       .  A
C425        F428   1.358       .  S
C426        F430   1.358       .  S
C433        C434   1.400       .  A
C433        C438   1.400       .  A
C433        F451   1.358       .  S
C434        C439   1.482       .  S
C434        C435   1.405       .  A
C435        C436   1.403       .  A
C435        F440   1.358       .  S
C436        C437   1.411       .  A
C436        F452   1.358       .  S
C437        C438   1.416       .  A
C438        F441   1.358       .  S
C439        C442   1.403       .  A
C439        C446   1.402       .  A
C442        C443   1.401       .  A
C442        F447   1.358       .  S
C443        C444   1.412       .  A
C443        F449   1.358       .  S
C444        C445   1.415       .  A
C445        C446   1.401       .  A
C445        F448   1.358       .  S
C446        F450   1.358       .  S
C453        C454   1.408       .  A
C453        C458   1.398       .  A
C453        F471   1.358       .  S
C454        C459   1.491       .  S
C454        C455   1.410       .  A
C455        C456   1.402       .  A
C455        F460   1.358       .  S
C456        C457   1.406       .  A
C456        F472   1.358   1_556  S
C457        C458   1.408       .  A
C458        F461   1.359       .  S
C459        C462   1.407       .  A
C459        C466   1.409       .  A
C462        C463   1.400       .  A
C462        F467   1.358       .  S
C463        C464   1.410       .  A
C463        F469   1.358       .  S
C464        C465   1.408       .  A
C465        C466   1.401       .  A
C465        F468   1.358       .  S
C466        F470   1.358       .  S
C473        C474   1.402       .  A
C473        C478   1.398       .  A
C473        F491   1.358       .  S
C474        C479   1.481       .  S
C474        C475   1.407       .  A
C475        C476   1.402       .  A
C475        F480   1.358       .  S
C476        C477   1.407       .  A
C476        F492   1.358       .  S
C477        C478   1.410       .  A
C478        F481   1.358       .  S
C479        C482   1.400       .  A
C479        C486   1.409       .  A
C482        C483   1.393       .  A
C482        F487   1.358       .  S
C483        C484   1.411       .  A
C483        F489   1.358       .  S
C484        C485   1.407       .  A
C485        C486   1.407       .  A
C485        F488   1.358       .  S
C486        F490   1.358       .  S
C493        C494   1.406       .  A
C493        C498   1.400       .  A
C493        F511   1.358       .  S
C494        C499   1.473   1_554  S
C494        C495   1.400       .  A
C495        C496   1.393       .  A
C495        F500   1.358       .  S
C496        C497   1.410       .  A
C496        F512   1.357       .  S
C497        C498   1.405       .  A
C498        F501   1.358       .  S
C499        C502   1.406       .  A
C499        C506   1.401       .  A
C502        C503   1.400       .  A
C502        F507   1.358   1_556  S
C503        C504   1.401       .  A
C503        F509   1.357       .  S
C504        C505   1.406       .  A
C505        C506   1.395       .  A
C505        F508   1.357       .  S
C506        F510   1.358       .  S
C513        C514   1.406       .  A
C513        C518   1.407       .  A
C513        F531   1.358       .  S
C514        C519   1.482       .  S
C514        C515   1.399       .  A
C515        C516   1.396       .  A
C515        F520   1.358       .  S
C516        C517   1.416       .  A
C516        F532   1.358       .  S
C517        C518   1.412       .  A
C518        F521   1.357       .  S
C519        C522   1.401       .  A
C519        C526   1.406       .  A
C522        C523   1.399       .  A
C522        F527   1.358       .  S
C523        C524   1.414       .  A
C523        F529   1.358       .  S
C524        C525   1.409       .  A
C525        C526   1.403       .  A
C525        F528   1.358       .  S
C526        F530   1.358       .  S
C533        C534   1.407       .  A
C533        C538   1.406       .  A
C533        F551   1.358       .  S
C534        C539   1.480       .  S
C534        C535   1.398       .  A
C535        C536   1.392       .  A
C535        F540   1.358       .  S
C536        C537   1.416       .  A
C536        F552   1.358       .  S
C537        C538   1.411       .  A
C538        F541   1.358   1_556  S
C539        C542   1.406       .  A
C539        C546   1.403       .  A
C542        C543   1.403       .  A
C542        F547   1.358       .  S
C543        C544   1.408       .  A
C543        F549   1.357       .  S
C544        C545   1.409       .  A
C545        C546   1.397       .  A
C545        F548   1.358       .  S
C546        F550   1.358       .  S
C553        C554   1.405       .  A
C553        C558   1.401       .  A
C553        F571   1.358       .  S
C554        C559   1.480       .  S
C554        C555   1.402       .  A
C555        C556   1.396       .  A
C555        F560   1.358       .  S
C556        C557   1.411       .  A
C556        F572   1.358       .  S
C557        C558   1.412       .  A
C558        F561   1.358       .  S
C559        C562   1.405       .  A
C559        C566   1.402       .  A
C562        C563   1.401       .  A
C562        F567   1.358       .  S
C563        C564   1.412       .  A
C563        F569   1.358       .  S
C564        C565   1.410       .  A
C565        C566   1.396       .  A
C565        F568   1.358       .  S
C566        F570   1.358       .  S
C573        C574   1.403       .  A
C573        C578   1.395       .  A
C573        F591   1.358       .  S
C574        C579   1.476       .  S
C574        C575   1.404       .  A
C575        C576   1.399       .  A
C575        F580   1.358       .  S
C576        C577   1.409       .  A
C576        F592   1.358       .  S
C577        C578   1.410       .  A
C578        F581   1.358   1_556  S
C579        C582   1.407       .  A
C579        C586   1.400       .  A
C582        C583   1.403       .  A
C582        F587   1.358       .  S
C583        C584   1.407       .  A
C583        F589   1.358       .  S
C584        C585   1.410       .  A
C585        C586   1.391       .  A
C585        F588   1.359       .  S
C586        F590   1.358       .  S
C593        C594   1.401       .  A
C593        C598   1.397       .  A
C593        F611   1.358       .  S
C594        C599   1.483       .  S
C594        C595   1.406       .  A
C595        C596   1.402       .  A
C595        F600   1.358       .  S
C596        C597   1.411       .  A
C596        F612   1.357       .  S
C597        C598   1.414       .  A
C598        F601   1.358       .  S
C599        C602   1.406       .  A
C599        C606   1.401       .  A
C602        C603   1.400       .  A
C602        F607   1.358       .  S
C603        C604   1.409       .  A
C603        F609   1.358       .  S
C604        C605   1.417       .  A
C605        C606   1.400       .  A
C605        F608   1.358       .  S
C606        F610   1.358       .  S
C613        C614   1.407       .  A
C613        C618   1.401       .  A
C613        F631   1.358       .  S
C614        C619   1.485       .  S
C614        C615   1.406       .  A
C615        C616   1.398       .  A
C615        F620   1.358       .  S
C616        C617   1.408       .  A
C616        F632   1.358       .  S
C617        C618   1.408       .  A
C618        F621   1.358       .  S
C619        C622   1.402       .  A
C619        C626   1.409       .  A
C622        C623   1.396       .  A
C622        F627   1.358       .  S
C623        C624   1.412       .  A
C623        F629   1.359       .  S
C624        C625   1.407       .  A
C625        C626   1.405       .  A
C625        F628   1.357       .  S
C626        F630   1.358       .  S
C633        C634   1.404       .  A
C633        C638   1.396       .  A
C633        F651   1.358       .  S
C634        C639   1.475       .  S
C634        C635   1.401       .  A
C635        C636   1.398       .  A
C635        F640   1.358       .  S
C636        C637   1.414       .  A
C636        F652   1.358       .  S
C637        C638   1.408       .  A
C638        F641   1.358       .  S
C639        C642   1.404       .  A
C639        C646   1.402       .  A
C642        C643   1.396       .  A
C642        F647   1.358       .  S
C643        C644   1.409       .  A
C643        F649   1.358       .  S
C644        C645   1.411       .  A
C645        C646   1.398       .  A
C645        F648   1.358       .  S
C646        F650   1.358       .  S
C653        C654   1.400       .  A
C653        C658   1.398       .  A
C653        F671   1.357       .  S
C654        C659   1.478       .  S
C654        C655   1.403       .  A
C655        C656   1.401       .  A
C655        F660   1.358       .  S
C656        C657   1.412       .  A
C656        F672   1.358       .  S
C657        C658   1.413       .  A
C658        F661   1.358       .  S
C659        C662   1.398       .  A
C659        C666   1.403       .  A
C662        C663   1.399       .  A
C662        F667   1.358       .  S
C663        C664   1.417       .  A
C663        F669   1.358       .  S
C664        C665   1.413       .  A
C665        C666   1.403       .  A
C665        F668   1.357       .  S
C666        F670   1.358       .  S
C673        C674   1.404       .  A
C673        C678   1.403       .  A
C673        F691   1.358       .  S
C674        C679   1.488       .  S
C674        C675   1.405       .  A
C675        C676   1.403       .  A
C675        F680   1.357       .  S
C676        C677   1.411       .  A
C676        F692   1.357       .  S
C677        C678   1.414       .  A
C678        F681   1.358       .  S
C679        C682   1.403       .  A
C679        C686   1.407       .  A
C682        C683   1.401       .  A
C682        F687   1.358       .  S
C683        C684   1.413       .  A
C683        F689   1.358       .  S
C684        C685   1.409       .  A
C685        C686   1.406       .  A
C685        F688   1.357       .  S
C686        F690   1.358       .  S
C693        C694   1.410       .  A
C693        C698   1.402       .  A
C693        F711   1.357   1_656  S
C694        C699   1.493   1_656  S
C694        C695   1.404       .  A
C695        C696   1.401       .  A
C695        F700   1.358       .  S
C696        C697   1.417       .  A
C696        F712   1.359       .  S
C697        C698   1.406       .  A
C698        F701   1.357       .  S
C699        C702   1.413       .  A
C699        C706   1.404   1_455  A
C702        C703   1.408       .  A
C702        F707   1.358   1_554  S
C703        C704   1.407       .  A
C703        F709   1.358       .  S
C704        C705   1.409       .  A
C705        C706   1.394   1_455  A
C705        F708   1.358   1_455  S
C706        F710   1.358       .  S
C713        C714   1.413       .  A
C713        C718   1.407       .  A
C713        F731   1.357       .  S
C714        C719   1.496   1_655  S
C714        C715   1.405   1_655  A
C715        C716   1.394   1_455  A
C715        F720   1.358       .  S
C716        C717   1.414       .  A
C716        F732   1.359   1_655  S
C717        C718   1.407       .  A
C718        F721   1.357       .  S
C719        C722   1.410       .  A
C719        C726   1.411       .  A
C722        C723   1.403       .  A
C722        F727   1.358   1_455  S
C723        C724   1.406       .  A
C723        F729   1.358       .  S
C724        C725   1.404       .  A
C725        C726   1.401       .  A
C725        F728   1.357       .  S
C726        F730   1.358       .  S
C733        C734   1.406       .  A
C733        C738   1.404       .  A
C733        F751   1.358       .  S
C734        C739   1.491       .  S
C734        C735   1.406       .  A
C735        C736   1.400       .  A
C735        F740   1.358       .  S
C736        C737   1.411       .  A
C736        F752   1.358       .  S
C737        C738   1.414       .  A
C738        F741   1.358   1_554  S
C739        C742   1.408       .  A
C739        C746   1.405       .  A
C742        C743   1.401       .  A
C742        F747   1.358       .  S
C743        C744   1.408       .  A
C743        F749   1.358       .  S
C744        C745   1.413       .  A
C745        C746   1.404       .  A
C745        F748   1.358       .  S
C746        F750   1.358       .  S
C753        C754   1.403       .  A
C753        C758   1.402       .  A
C753        F771   1.358       .  S
C754        C759   1.484       .  S
C754        C755   1.405       .  A
C755        C756   1.400       .  A
C755        F760   1.358       .  S
C756        C757   1.409       .  A
C756        F772   1.358       .  S
C757        C758   1.413       .  A
C758        F761   1.358       .  S
C759        C762   1.403       .  A
C759        C766   1.403       .  A
C762        C763   1.401       .  A
C762        F767   1.358       .  S
C763        C764   1.413       .  A
C763        F769   1.358       .  S
C764        C765   1.414       .  A
C765        C766   1.403       .  A
C765        F768   1.357       .  S
C766        F770   1.358       .  S
C773        C774   1.400       .  A
C773        C778   1.397       .  A
C773        F791   1.358       .  S
C774        C779   1.485       .  S
C774        C775   1.409       .  A
C775        C776   1.406       .  A
C775        F780   1.358       .  S
C776        C777   1.409       .  A
C776        F792   1.358       .  S
C777        C778   1.414       .  A
C778        F781   1.358       .  S
C779        C782   1.408       .  A
C779        C786   1.402       .  A
C782        C783   1.406       .  A
C782        F787   1.357       .  S
C783        C784   1.406       .  A
C783        F789   1.357       .  S
C784        C785   1.410       .  A
C785        C786   1.398       .  A
C785        F788   1.358       .  S
C786        F790   1.358       .  S
C793        C794   1.410       .  A
C793        C798   1.402       .  A
C793        F811   1.358       .  S
C794        C799   1.482       .  S
C794        C795   1.401       .  A
C795        C796   1.390       .  A
C795        F800   1.358       .  S
C796        C797   1.414       .  A
C796        F812   1.359       .  S
C797        C798   1.406       .  A
C798        F801   1.358       .  S
C799        C802   1.407       .  A
C799        C806   1.409       .  A
C802        C803   1.395       .  A
C802        F807   1.358       .  S
C803        C804   1.404       .  A
C803        F809   1.358       .  S
C804        C805   1.403       .  A
C805        C806   1.397       .  A
C805        F808   1.355       .  S
C806        F810   1.358       .  S
C813        C814   1.402       .  A
C813        C818   1.400       .  A
C813        F831   1.358       .  S
C814        C819   1.484       .  S
C814        C815   1.405       .  A
C815        C816   1.402       .  A
C815        F820   1.358       .  S
C816        C817   1.411       .  A
C816        F832   1.358       .  S
C817        C818   1.413       .  A
C818        F821   1.358   1_455  S
C819        C822   1.407       .  A
C819        C826   1.400       .  A
C822        C823   1.405       .  A
C822        F827   1.358       .  S
C823        C824   1.410       .  A
C823        F829   1.357       .  S
C824        C825   1.417       .  A
C825        C826   1.398       .  A
C825        F828   1.358       .  S
C826        F830   1.358       .  S
C833        C834   1.408       .  A
C833        C838   1.405       .  A
C833        F851   1.358       .  S
C834        C839   1.485       .  S
C834        C835   1.401       .  A
C835        C836   1.395       .  A
C835        F840   1.358       .  S
C836        C837   1.414       .  A
C836        F852   1.358       .  S
C837        C838   1.410       .  A
C838        F841   1.358       .  S
C839        C842   1.401       .  A
C839        C846   1.408       .  A
C842        C843   1.399       .  A
C842        F847   1.358       .  S
C843        C844   1.417       .  A
C843        F849   1.358       .  S
C844        C845   1.409       .  A
C845        C846   1.402       .  A
C845        F848   1.357       .  S
C846        F850   1.358       .  S
C853        C854   1.400       .  A
C853        C858   1.393       .  A
C853        F871   1.358       .  S
C854        C859   1.482       .  S
C854        C855   1.408       .  A
C855        C856   1.405       .  A
C855        F860   1.358       .  S
C856        C857   1.409       .  A
C856        F872   1.358       .  S
C857        C858   1.414       .  A
C858        F861   1.358       .  S
C859        C862   1.406       .  A
C859        C866   1.401       .  A
C862        C863   1.399       .  A
C862        F867   1.358       .  S
C863        C864   1.410       .  A
C863        F869   1.358       .  S
C864        C865   1.416       .  A
C865        C866   1.400       .  A
C865        F868   1.358       .  S
C866        F870   1.358       .  S
C873        C874   1.403       .  A
C873        C878   1.391       .  A
C873        F891   1.358       .  S
C874        C879   1.489       .  S
C874        C875   1.412       .  A
C875        C876   1.407       .  A
C875        F880   1.358       .  S
C876        C877   1.408       .  A
C876        F892   1.358       .  S
C877        C878   1.411       .  A
C878        F881   1.358       .  S
C879        C882   1.405       .  A
C879        C886   1.411       .  A
C882        C883   1.400       .  A
C882        F887   1.358       .  S
C883        C884   1.413       .  A
C883        F889   1.358       .  S
C884        C885   1.404       .  A
C885        C886   1.399       .  A
C885        F888   1.358       .  S
C886        F890   1.358       .  S
C893        C894   1.409       .  A
C893        C898   1.402       .  A
C893        F911   1.358       .  S
C894        C899   1.484       .  S
C894        C895   1.405       .  A
C895        C896   1.397       .  A
C895        F900   1.358       .  S
C896        C897   1.405       .  A
C896        F912   1.357       .  S
C897        C898   1.403       .  A
C898        F901   1.357       .  S
C899        C902   1.408       .  A
C899        C906   1.404       .  A
C902        C903   1.402       .  A
C902        F907   1.357       .  S
C903        C904   1.406       .  A
C903        F909   1.358       .  S
C904        C905   1.409       .  A
C905        C906   1.396       .  A
C905        F908   1.358       .  S
C906        F910   1.358       .  S
C913        C914   1.397       .  A
C913        C918   1.393       .  A
C913        F931   1.358       .  S
C914        C919   1.479       .  S
C914        C915   1.407       .  A
C915        C916   1.407       .  A
C915        F920   1.358       .  S
C916        C917   1.412       .  A
C916        F932   1.358       .  S
C917        C918   1.416       .  A
C918        F921   1.358       .  S
C919        C922   1.400       .  A
C919        C926   1.405       .  A
C922        C923   1.398       .  A
C922        F927   1.358       .  S
C923        C924   1.416       .  A
C923        F929   1.358       .  S
C924        C925   1.410       .  A
C925        C926   1.402       .  A
C925        F928   1.357       .  S
C926        F930   1.358       .  S
C933        C934   1.404       .  A
C933        C938   1.403       .  A
C933        F951   1.358       .  S
C934        C939   1.482       .  S
C934        C935   1.403       .  A
C935        C936   1.400       .  A
C935        F940   1.358       .  S
C936        C937   1.412       .  A
C936        F952   1.358       .  S
C937        C938   1.411       .  A
C938        F941   1.358   1_554  S
C939        C942   1.404       .  A
C939        C946   1.401       .  A
C942        C943   1.402       .  A
C942        F947   1.358       .  S
C943        C944   1.413       .  A
C943        F949   1.358       .  S
C944        C945   1.416       .  A
C945        C946   1.401       .  A
C945        F948   1.358       .  S
C946        F950   1.358       .  S
C953        C954   1.400       .  A
C953        C958   1.398       .  A
C953        F971   1.358       .  S
C954        C959   1.480       .  S
C954        C955   1.405       .  A
C955        C956   1.403       .  A
C955        F960   1.358       .  S
C956        C957   1.410       .  A
C956        F972   1.357       .  S
C957        C958   1.415       .  A
C958        F961   1.359       .  S
C959        C962   1.405       .  A
C959        C966   1.401       .  A
C962        C963   1.403       .  A
C962        F967   1.358       .  S
C963        C964   1.409       .  A
C963        F969   1.358       .  S
C964        C965   1.412       .  A
C965        C966   1.399       .  A
C965        F968   1.358       .  S
C966        F970   1.358       .  S
C973        C974   1.405       .  A
C973        C978   1.403       .  A
C973        F991   1.358       .  S
C974        C979   1.486       .  S
C974        C975   1.402       .  A
C975        C976   1.401       .  A
C975        F980   1.358       .  S
C976        C977   1.415       .  A
C976        F992   1.358   1_545  S
C977        C978   1.412       .  A
C978        F981   1.358       .  S
C979        C982   1.401       .  A
C979        C986   1.406       .  A
C982        C983   1.401       .  A
C982        F987   1.358       .  S
C983        C984   1.416       .  A
C983        F989   1.358       .  S
C984        C985   1.412       .  A
C985        C986   1.404       .  A
C985        F988   1.358       .  S
C986        F990   1.358       .  S
C993        C994   1.401       .  A
C993        C998   1.398       .  A
C993       F1011   1.358       .  S
C994        C999   1.479       .  S
C994        C995   1.406       .  A
C995        C996   1.404       .  A
C995       F1000   1.358       .  S
C996        C997   1.408       .  A
C996       F1012   1.358       .  S
C997        C998   1.409       .  A
C998       F1001   1.358       .  S
C999       C1002   1.404       .  A
C999       C1006   1.398       .  A
C1002      C1003   1.405       .  A
C1002      F1007   1.357       .  S
C1003      C1004   1.411       .  A
C1003      F1009   1.357       .  S
C1004      C1005   1.417       .  A
C1005      C1006   1.397       .  A
C1005      F1008   1.358       .  S
C1006      F1010   1.358       .  S
C1013      C1014   1.403       .  A
C1013      C1018   1.400       .  A
C1013      F1031   1.358       .  S
C1014      C1019   1.489       .  S
C1014      C1015   1.410       .  A
C1015      C1016   1.404       .  A
C1015      F1020   1.358       .  S
C1016      C1017   1.406       .  A
C1016      F1032   1.357       .  S
C1017      C1018   1.414       .  A
C1018      F1021   1.358       .  S
C1019      C1022   1.402       .  A
C1019      C1026   1.411       .  A
C1022      C1023   1.397       .  A
C1022      F1027   1.358       .  S
C1023      C1024   1.411       .  A
C1023      F1029   1.358       .  S
C1024      C1025   1.407       .  A
C1025      C1026   1.407       .  A
C1025      F1028   1.358       .  S
C1026      F1030   1.357       .  S
C1033      C1034   1.401       .  A
C1033      C1038   1.394       .  A
C1033      F1051   1.358       .  S
C1034      C1039   1.471       .  S
C1034      C1035   1.406       .  A
C1035      C1036   1.399       .  A
C1035      F1040   1.358       .  S
C1036      C1037   1.405       .  A
C1036      F1052   1.357       .  S
C1037      C1038   1.407       .  A
C1038      F1041   1.358       .  S
C1039      C1042   1.408       .  A
C1039      C1046   1.395       .  A
C1042      C1043   1.403       .  A
C1042      F1047   1.358       .  S
C1043      C1044   1.406       .  A
C1043      F1049   1.357       .  S
C1044      C1045   1.417       .  A
C1045      C1046   1.388       .  A
C1045      F1048   1.359       .  S
C1046      F1050   1.359       .  S
C1053      C1054   1.410       .  A
C1053      C1058   1.399       .  A
C1053      F1071   1.358       .  S
C1054      C1059   1.499       .  S
C1054      C1055   1.412       .  A
C1055      C1056   1.405       .  A
C1055      F1060   1.358       .  S
C1056      C1057   1.408       .  A
C1056      F1072   1.358       .  S
C1057      C1058   1.407       .  A
C1058      F1061   1.358       .  S
C1059      C1062   1.408       .  A
C1059      C1066   1.412       .  A
C1062      C1063   1.399       .  A
C1062      F1067   1.358       .  S
C1063      C1064   1.410       .  A
C1063      F1069   1.358       .  S
C1064      C1065   1.409       .  A
C1065      C1066   1.406       .  A
C1065      F1068   1.358       .  S
C1066      F1070   1.358       .  S
C1073      C1074   1.405       .  A
C1073      C1078   1.404       .  A
C1073      F1091   1.357       .  S
C1074      C1079   1.478       .  S
C1074      C1075   1.400       .  A
C1075      C1076   1.396       .  A
C1075      F1080   1.358       .  S
C1076      C1077   1.412       .  A
C1076      F1092   1.358       .  S
C1077      C1078   1.409       .  A
C1078      F1081   1.358       .  S
C1079      C1082   1.406       .  A
C1079      C1086   1.397       .  A
C1082      C1083   1.406       .  A
C1082      F1087   1.358       .  S
C1083      C1084   1.411       .  A
C1083      F1089   1.357       .  S
C1084      C1085   1.418       .  A
C1085      C1086   1.395       .  A
C1085      F1088   1.358       .  S
C1086      F1090   1.358       .  S
C1093      C1094   1.403       .  A
C1093      C1098   1.400       .  A
C1093      F1111   1.358       .  S
C1094      C1099   1.479       .  S
C1094      C1095   1.402       .  A
C1095      C1096   1.401       .  A
C1095      F1100   1.358       .  S
C1096      C1097   1.412       .  A
C1096      F1112   1.358   1_556  S
C1097      C1098   1.410       .  A
C1098      F1101   1.358       .  S
C1099      C1102   1.404       .  A
C1099      C1106   1.399       .  A
C1102      C1103   1.403       .  A
C1102      F1107   1.358       .  S
C1103      C1104   1.412       .  A
C1103      F1109   1.358       .  S
C1104      C1105   1.416       .  A
C1105      C1106   1.398       .  A
C1105      F1108   1.358       .  S
C1106      F1110   1.358       .  S
C1113      C1114   1.404       .  A
C1113      C1118   1.398       .  A
C1113      F1131   1.358   1_565  S
C1114      C1119   1.489   1_654  S
C1114      C1115   1.410       .  A
C1115      C1116   1.403       .  A
C1115      F1120   1.358   1_655  S
C1116      C1117   1.406       .  A
C1116      F1132   1.357       .  S
C1117      C1118   1.411       .  A
C1118      F1121   1.359       .  S
C1119      C1122   1.409   1_565  A
C1119      C1126   1.403       .  A
C1122      C1123   1.405       .  A
C1122      F1127   1.358   1_556  S
C1123      C1124   1.409       .  A
C1123      F1129   1.358       .  S
C1124      C1125   1.414   1_545  A
C1125      C1126   1.397       .  A
C1125      F1128   1.358       .  S
C1126      F1130   1.358   1_455  S
C1133      C1134   1.411   1_455  A
C1133      C1138   1.401       .  A
C1133      F1151   1.358   1_545  S
C1134      C1139   1.485   1_545  S
C1134      C1135   1.404       .  A
C1135      C1136   1.390       .  A
C1135      F1140   1.358       .  S
C1136      C1137   1.411   1_655  A
C1136      F1152   1.357       .  S
C1137      C1138   1.406       .  A
C1138      F1141   1.358       .  S
C1139      C1142   1.409       .  A
C1139      C1146   1.410   1_565  A
C1142      C1143   1.396       .  A
C1142      F1147   1.358   1_655  S
C1143      C1144   1.403       .  A
C1143      F1149   1.358       .  S
C1144      C1145   1.402       .  A
C1145      C1146   1.396   1_565  A
C1145      F1148   1.357   1_565  S
C1146      F1150   1.358       .  S
C1153      C1154   1.408       .  A
C1153      C1158   1.403       .  A
C1153      F1171   1.358       .  S
C1154      C1159   1.481       .  S
C1154      C1155   1.403       .  A
C1155      C1156   1.396       .  A
C1155      F1160   1.358       .  S
C1156      C1157   1.409       .  A
C1156      F1172   1.358       .  S
C1157      C1158   1.407       .  A
C1158      F1161   1.358       .  S
C1159      C1162   1.403       .  A
C1159      C1166   1.405       .  A
C1162      C1163   1.397       .  A
C1162      F1167   1.358       .  S
C1163      C1164   1.411       .  A
C1163      F1169   1.358       .  S
C1164      C1165   1.411       .  A
C1165      C1166   1.402       .  A
C1165      F1168   1.358       .  S
C1166      F1170   1.358       .  S
C1173      C1174   1.405       .  A
C1173      C1178   1.397       .  A
C1173      F1191   1.358       .  S
C1174      C1179   1.483       .  S
C1174      C1175   1.406       .  A
C1175      C1176   1.401       .  A
C1175      F1180   1.358       .  S
C1176      C1177   1.411       .  A
C1176      F1192   1.358       .  S
C1177      C1178   1.407       .  A
C1178      F1181   1.358       .  S
C1179      C1182   1.402       .  A
C1179      C1186   1.407       .  A
C1182      C1183   1.395       .  A
C1182      F1187   1.358       .  S
C1183      C1184   1.413       .  A
C1183      F1189   1.358       .  S
C1184      C1185   1.412       .  A
C1185      C1186   1.403       .  A
C1185      F1188   1.358       .  S
C1186      F1190   1.358       .  S
C1193      C1194   1.407       .  A
C1193      C1198   1.401       .  A
C1193      F1211   1.358       .  S
C1194      C1199   1.477       .  S
C1194      C1195   1.398       .  A
C1195      C1196   1.396       .  A
C1195      F1200   1.358       .  S
C1196      C1197   1.416       .  A
C1196      F1212   1.358       .  S
C1197      C1198   1.406       .  A
C1198      F1201   1.357       .  S
C1199      C1202   1.406       .  A
C1199      C1206   1.399       .  A
C1202      C1203   1.403       .  A
C1202      F1207   1.358       .  S
C1203      C1204   1.410       .  A
C1203      F1209   1.358       .  S
C1204      C1205   1.413       .  A
C1205      C1206   1.393       .  A
C1205      F1208   1.358       .  S
C1206      F1210   1.358       .  S
C1213      C1214   1.403   1_565  A
C1213      C1218   1.395   1_565  A
C1213      F1231   1.358       .  S
C1214      C1219   1.485   1_545  S
C1214      C1215   1.409       .  A
C1215      C1216   1.405       .  A
C1215      F1220   1.358       .  S
C1216      C1217   1.407       .  A
C1216      F1232   1.358       .  S
C1217      C1218   1.410       .  A
C1218      F1221   1.358   1_545  S
C1219      C1222   1.403   1_565  A
C1219      C1226   1.408       .  A
C1222      C1223   1.399   1_545  A
C1222      F1227   1.358       .  S
C1223      C1224   1.412       .  A
C1223      F1229   1.358   1_565  S
C1224      C1225   1.408       .  A
C1225      C1226   1.401       .  A
C1225      F1228   1.358       .  S
C1226      F1230   1.358       .  S
C1233      C1234   1.413       .  A
C1233      C1238   1.407       .  A
C1233      F1251   1.358   1_554  S
C1234      C1239   1.486   1_554  S
C1234      C1235   1.399       .  A
C1235      C1236   1.388       .  A
C1235      F1240   1.359       .  S
C1236      C1237   1.417       .  A
C1236      F1252   1.357       .  S
C1237      C1238   1.407       .  A
C1238      F1241   1.357       .  S
C1239      C1242   1.407   1_565  A
C1239      C1246   1.411       .  A
C1242      C1243   1.397       .  A
C1242      F1247   1.358   1_556  S
C1243      C1244   1.407       .  A
C1243      F1249   1.359       .  S
C1244      C1245   1.402       .  A
C1245      C1246   1.397   1_545  A
C1245      F1248   1.358   1_545  S
C1246      F1250   1.358       .  S
C1253      C1254   1.407       .  A
C1253      C1258   1.401       .  A
C1253      F1271   1.358       .  S
C1254      C1259   1.495       .  S
C1254      C1255   1.408       .  A
C1255      C1256   1.406       .  A
C1255      F1260   1.358       .  S
C1256      C1257   1.411       .  A
C1256      F1272   1.358       .  S
C1257      C1258   1.411       .  A
C1258      F1261   1.358       .  S
C1259      C1262   1.409       .  A
C1259      C1266   1.405       .  A
C1262      C1263   1.404       .  A
C1262      F1267   1.358       .  S
C1263      C1264   1.410       .  A
C1263      F1269   1.358       .  S
C1264      C1265   1.415       .  A
C1265      C1266   1.404       .  A
C1265      F1268   1.358   1_545  S
C1266      F1270   1.358       .  S
C1273      C1274   1.408       .  A
C1273      C1278   1.402       .  A
C1273      F1291   1.357       .  S
C1274      C1279   1.493       .  S
C1274      C1275   1.409       .  A
C1275      C1276   1.400       .  A
C1275      F1280   1.358       .  S
C1276      C1277   1.408       .  A
C1276      F1292   1.358       .  S
C1277      C1278   1.409       .  A
C1278      F1281   1.358       .  S
C1279      C1282   1.406       .  A
C1279      C1286   1.409       .  A
C1282      C1283   1.402       .  A
C1282      F1287   1.358       .  S
C1283      C1284   1.414       .  A
C1283      F1289   1.358       .  S
C1284      C1285   1.409       .  A
C1285      C1286   1.401       .  A
C1285      F1288   1.358       .  S
C1286      F1290   1.358       .  S
C1293      C1294   1.408       .  A
C1293      C1298   1.403       .  A
C1293      F1311   1.358       .  S
C1294      C1299   1.483       .  S
C1294      C1295   1.404       .  A
C1295      C1296   1.395       .  A
C1295      F1300   1.358       .  S
C1296      C1297   1.409       .  A
C1296      F1312   1.359       .  S
C1297      C1298   1.406       .  A
C1298      F1301   1.358       .  S
C1299      C1302   1.401       .  A
C1299      C1306   1.407       .  A
C1302      C1303   1.394       .  A
C1302      F1307   1.359       .  S
C1303      C1304   1.416       .  A
C1303      F1309   1.359       .  S
C1304      C1305   1.409       .  A
C1305      C1306   1.404       .  A
C1305      F1308   1.357       .  S
C1306      F1310   1.358       .  S
