geometry optimzed in LAMMPS
_audit_creation_date              2020-12-01 
_audit_creation_method            'lammps2cif' 
_symmetry_space_group_name_H-M    'P1' 
_symmetry_Int_Tables_number       1 
_symmetry_cell_setting            triclinic 
loop_ 
_symmetry_equiv_pos_as_xyz 
  x,y,z 
_cell_length_a                    45.2695304 
_cell_length_b                    45.343894592553134 
_cell_length_c                    50.0876251024878 
_cell_angle_alpha                 90.13072071278789 
_cell_angle_beta                  90.38818003405342 
_cell_angle_gamma                 90.16283557207683 
loop_ 
_atom_site_label 
_atom_site_type_symbol 
_atom_site_fract_x 
_atom_site_fract_y 
_atom_site_fract_z 
_atom_site_charge 
O1          O  0.43041847  0.71048895  0.08371187    -0.82500
C2          C  0.37974983  0.65615966  0.17357798     0.96800
O3          O  0.36813976  0.65769167  0.15066653    -0.71700
O4          O  0.36591796  0.71155602  0.13327893    -0.75300
Al5        Al  0.38050345  0.67634141  0.11861669     1.49000
C6          C  0.37508534  0.73760516  0.13054308     0.92100
O7          O  0.44413274  0.72836286  0.15721173    -0.81500
O8          O  0.46598321  0.65237175  0.12490860    -0.75000
Al9        Al  0.43586253  0.71729712  0.12085557     1.90100
O10         O  0.45878883  0.68478972  0.17043689    -0.74100
O11         O  0.41742860  0.62299329  0.13521100    -0.74000
O12         O  0.40703834  0.66040600  0.17712645    -0.79600
O13         O  0.38981284  0.63926908  0.10254107    -0.77800
O14         O  0.41735228  0.68376203  0.12975753    -1.13900
O15         O  0.38504079  0.69349207  0.08435160    -0.73100
C16         C  0.40690438  0.70332337  0.07168907     0.97600
C17         C  0.45740552  0.71224503  0.17390601     0.94000
Al18       Al  0.43578231  0.65743486  0.15009816     1.55600
O19         O  0.40123644  0.74241356  0.12283938    -0.77800
C20         C  0.40138999  0.61806541  0.11500724     0.98100
C21         C  0.48244187  0.67257310  0.11607628     0.93000
O22         O  0.47426760  0.69928814  0.11680712    -0.83100
O23         O  0.47896121  0.69315290  0.86282885    -0.82500
C24         C  0.37255916  0.68419867  0.80920887     0.96800
O25         O  0.39982246  0.68146209  0.80497854    -0.71700
O26         O  0.45660633  0.69048940  0.81076912    -0.75300
Al27       Al  0.42794484  0.66759140  0.82971335     1.49000
C28         C  0.46263236  0.71768249  0.81032977     0.92100
O29         O  0.41976377  0.75471770  0.86756713    -0.81500
O30         O  0.39413435  0.70846745  0.90165851    -0.75000
Al31       Al  0.44634893  0.72118556  0.86378085     1.90100
O32         O  0.37726964  0.73625253  0.85469210    -0.74100
O33         O  0.38204035  0.65786901  0.87849176    -0.74000
O34         O  0.36279021  0.68612866  0.83279122    -0.79600
O35         O  0.40165611  0.63764565  0.84311385    -0.77800
O36         O  0.41878920  0.69530095  0.85323960    -1.13900
O37         O  0.45700514  0.65144845  0.85227983    -0.73100
C38         C  0.47933702  0.66519625  0.86097389     0.97600
C39         C  0.39318461  0.75820433  0.86016193     0.94000
Al40       Al  0.38218597  0.69717817  0.86591443     1.55600
O41         O  0.45378064  0.73462857  0.82850774    -0.77800
C42         C  0.38694013  0.63547085  0.86436303     0.98100
C43         C  0.41921117  0.70923645  0.91308266     0.93000
O44         O  0.44248114  0.71063888  0.89961217    -0.83100
O45         O  0.72389346  0.56039251  0.08618347    -0.82500
C46         C  0.67502237  0.61776927  0.17585656     0.96800
O47         O  0.67896955  0.62936628  0.15328378    -0.71700
O48         O  0.73388627  0.62270031  0.13949351    -0.75300
Al49       Al  0.69815779  0.61455885  0.12199384     1.49000
C50         C  0.75836075  0.61017993  0.13620265     0.92100
O51         O  0.73807074  0.54461016  0.16034058    -0.81500
O52         O  0.66030806  0.53435123  0.12531139    -0.75000
Al53       Al  0.72931284  0.55360507  0.12349238     1.90100
O54         O  0.69232438  0.53572741  0.17173498    -0.74100
O55         O  0.63943532  0.58604144  0.13518496    -0.74000
O56         O  0.67616158  0.59023465  0.17884820    -0.79600
O57         O  0.66150309  0.61077273  0.10345021    -0.77800
O58         O  0.69902749  0.57692824  0.13203959    -1.13900
O59         O  0.71699545  0.60819693  0.08865883    -0.73100
C60         C  0.72190115  0.58530035  0.07503198     0.97600
C61         C  0.71950947  0.53556456  0.17719790     0.94000
Al62       Al  0.66955410  0.56272292  0.15113598     1.55600
O63         O  0.75956263  0.58438768  0.12636027    -0.77800
C64         C  0.63824414  0.60152718  0.11434036     0.98100
C65         C  0.67730516  0.51461199  0.11679037     0.93000
O66         O  0.70518136  0.51794104  0.11853341    -0.83100
O67         O  0.70747335  0.51848864  0.86303529    -0.82500
C68         C  0.68412779  0.62669277  0.81666014     0.96800
O69         O  0.68457965  0.59972778  0.81075864    -0.71700
O70         O  0.69899269  0.54463202  0.81199070    -0.75300
Al71       Al  0.67527008  0.56891773  0.83421826     1.49000
C72         C  0.72654715  0.54264283  0.80922802     0.92100
O73         O  0.76407355  0.58341159  0.86708746    -0.81500
O74         O  0.71875272  0.60265565  0.90556332    -0.75000
Al75       Al  0.73267748  0.55372536  0.86433843     1.90100
O76         O  0.74038923  0.62430539  0.85786710    -0.74100
O77         O  0.66483634  0.61045018  0.88649630    -0.74000
O78         O  0.68704714  0.63518164  0.84061408    -0.79600
O79         O  0.64446163  0.59106346  0.85077193    -0.77800
O80         O  0.70364825  0.57920548  0.85684516    -1.13900
O81         O  0.66355624  0.53712783  0.85540461    -0.73100
C82         C  0.67954454  0.51556796  0.86184112     0.97600
C83         C  0.76415247  0.61016618  0.85973994     0.94000
Al84       Al  0.70308830  0.61507426  0.87153912     1.55600
O85         O  0.74392596  0.54949300  0.82796937    -0.77800
C86         C  0.64217058  0.60473823  0.87263736     0.98100
C87         C  0.72250984  0.57738625  0.91575620     0.93000
O88         O  0.72477331  0.55491184  0.90112862    -0.83100
O89         O  0.57560535  0.26722570  0.08249452    -0.82500
C90         C  0.63209979  0.31664344  0.17283433     0.96800
O91         O  0.64478487  0.30962745  0.15139184    -0.71700
O92         O  0.63501074  0.25453772  0.13831847    -0.75300
Al93       Al  0.63028307  0.29029255  0.11980617     1.49000
C94         C  0.62138362  0.23071161  0.13415843     0.92100
O95         O  0.55542860  0.25686535  0.15630647    -0.81500
O96         O  0.55189165  0.33320729  0.11744925    -0.75000
Al97       Al  0.56706849  0.26333214  0.11954386     1.90100
O98         O  0.54951945  0.30396809  0.16486786    -0.74100
O99         O  0.60515361  0.35192439  0.12907094    -0.74000
O100        O  0.60437632  0.31793983  0.17420918    -0.79600
O101        O  0.63081295  0.32635561  0.10035254    -0.77800
O102        O  0.59211063  0.29256266  0.12805585    -1.13900
O103        O  0.62385355  0.27089131  0.08646757    -0.73100
C104        C  0.60101912  0.26751184  0.07212408     0.97600
C105        C  0.54417101  0.27731150  0.17020518     0.94000
Al106      Al  0.57887163  0.32409519  0.14496313     1.55600
O107        O  0.59579450  0.23106524  0.12360711    -0.77800
C108        C  0.62307911  0.35084406  0.10993330     0.98100
C109        C  0.53018265  0.31686814  0.11172749     0.93000
O110        O  0.53270278  0.28899829  0.11356704    -0.83100
O111        O  0.53395054  0.28790349  0.86195928    -0.82500
C112        C  0.64086173  0.30492968  0.81230568     0.96800
O113        O  0.61362397  0.30541955  0.80709714    -0.71700
O114        O  0.55741998  0.29496628  0.81025352    -0.75300
Al115      Al  0.58453127  0.31716819  0.83141496     1.49000
C116        C  0.55395494  0.26764789  0.80721589     0.92100
O117        O  0.59599030  0.22830084  0.86337682    -0.81500
O118        O  0.61860652  0.27413932  0.90251490    -0.75000
Al119      Al  0.56775715  0.26084479  0.86178498     1.90100
O120        O  0.63803099  0.25048438  0.85503354    -0.74100
O121        O  0.62857479  0.32715155  0.88230609    -0.74000
O122        O  0.65018269  0.30232871  0.83609229    -0.79600
O123        O  0.60939577  0.34703131  0.84647104    -0.77800
O124        O  0.59430528  0.28875335  0.85396495    -1.13900
O125        O  0.55450661  0.33091229  0.85379333    -0.73100
C126        C  0.53246717  0.31594263  0.86107477     0.97600
C127        C  0.62297434  0.22731271  0.85683061     0.94000
Al128      Al  0.63069246  0.28830200  0.86795031     1.55600
O129        O  0.56141123  0.24994828  0.82534438    -0.77800
C130        C  0.62385320  0.34946462  0.86796816     0.98100
C131        C  0.59353164  0.26986026  0.91292208     0.93000
O132        O  0.57068526  0.26800981  0.89857557    -0.83100
O133        O  0.27898402  0.41511306  0.08708573    -0.82500
C134        C  0.32116219  0.36193030  0.18080557     0.96800
O135        O  0.31610956  0.34783705  0.15948130    -0.71700
O136        O  0.26361959  0.35543685  0.14037036    -0.75300
Al137      Al  0.30134662  0.36090548  0.12557523     1.49000
C138        C  0.24026221  0.36884072  0.13456549     0.92100
O139        O  0.26484730  0.43298625  0.16124967    -0.81500
O140        O  0.34267438  0.44159694  0.12377058    -0.75000
Al141      Al  0.27307908  0.42330954  0.12404693     1.90100
O142        O  0.31115875  0.44323406  0.17038537    -0.74100
O143        O  0.36290646  0.38883310  0.13707738    -0.74000
O144        O  0.32630180  0.38923979  0.18058275    -0.79600
O145        O  0.33928092  0.35949626  0.10972405    -0.77800
O146        O  0.30271173  0.39933210  0.13337940    -1.13900
O147        O  0.28625423  0.36710970  0.09029493    -0.73100
C148        C  0.28201793  0.38995543  0.07627522     0.97600
C149        C  0.28441896  0.44257258  0.17737871     0.94000
Al150      Al  0.33327708  0.41431662  0.15133414     1.55600
O151        O  0.24152222  0.39469447  0.12547335    -0.77800
C152        C  0.36315251  0.36912615  0.11932296     0.98100
C153        C  0.32505311  0.46173895  0.11668405     0.93000
O154        O  0.29743410  0.45808815  0.11935219    -0.83100
O155        O  0.30618245  0.46744398  0.87364133    -0.82500
C156        C  0.31901116  0.37125891  0.81069559     0.96800
O157        O  0.32495012  0.39846042  0.81071972    -0.71700
O158        O  0.31628281  0.45373086  0.82229198    -0.75300
Al159      Al  0.33666954  0.42215242  0.83927746     1.49000
C160        C  0.28934356  0.45911110  0.81850435     0.92100
O161        O  0.24530000  0.40728751  0.86534175    -0.81500
O162        O  0.29417413  0.37903642  0.90479418    -0.75000
Al163      Al  0.27861513  0.43446149  0.86828810     1.90100
O164        O  0.26675682  0.36536496  0.85657024    -0.74100
O165        O  0.34503930  0.36895760  0.88139476    -0.74000
O166        O  0.31624826  0.35696262  0.83242797    -0.79600
O167        O  0.36590788  0.39448069  0.85013885    -0.77800
O168        O  0.30681489  0.40895824  0.85881129    -1.13900
O169        O  0.34979198  0.44741742  0.86690919    -0.73100
C170        C  0.33431104  0.46914895  0.87419374     0.97600
C171        C  0.24382120  0.38051673  0.85839972     0.94000
Al172      Al  0.30558040  0.37092064  0.86810805     1.55600
O173        O  0.26999925  0.44623222  0.83224557    -0.77800
C174        C  0.36779524  0.37613307  0.86879661     0.98100
C175        C  0.28805348  0.40281799  0.91703468     0.93000
O176        O  0.28367315  0.42638396  0.90442302    -0.83100
O177        O  0.73053532  0.42911756  0.40538646    -0.82500
C178        C  0.68263764  0.37562936  0.31322286     0.96800
O179        O  0.68809316  0.36265155  0.33494233    -0.71700
O180        O  0.74283080  0.36778476  0.35092909    -0.75300
Al181      Al  0.70627946  0.37559524  0.36739457     1.49000
C182        C  0.76707744  0.37874452  0.35837867     0.92100
O183        O  0.74775942  0.44390519  0.33193704    -0.81500
O184        O  0.67029431  0.45788941  0.36758047    -0.75000
Al185      Al  0.73811398  0.43582710  0.36859908     1.90100
O186        O  0.70230521  0.45635904  0.32091484    -0.74100
O187        O  0.64670699  0.40594060  0.35584433    -0.74000
O188        O  0.68244171  0.40333551  0.31175507    -0.79600
O189        O  0.66946685  0.37793618  0.38484316    -0.77800
O190        O  0.70727056  0.41357834  0.35895656    -1.13900
O191        O  0.72382132  0.38110424  0.40173032    -0.73100
C192        C  0.72757844  0.40392103  0.41595663     0.97600
C193        C  0.72966505  0.45581772  0.31585852     0.94000
Al194      Al  0.67782441  0.42962181  0.34064906     1.55600
O195        O  0.76765095  0.40448074  0.36825035    -0.77800
C196        C  0.64587610  0.38721922  0.37450258     0.98100
C197        C  0.68855725  0.47782883  0.37385441     0.93000
O198        O  0.71607353  0.47282235  0.37195469    -0.83100
O199        O  0.70884792  0.47133063  0.62649253    -0.82500
C200        C  0.68826408  0.36574107  0.67551217     0.96800
O201        O  0.68738063  0.39298392  0.68058702    -0.71700
O202        O  0.70136683  0.44876214  0.67708201    -0.75300
Al203      Al  0.67681901  0.42287796  0.65638613     1.49000
C204        C  0.72904128  0.45040606  0.67963766     0.92100
O205        O  0.76410054  0.40744312  0.62149168    -0.81500
O206        O  0.71631286  0.38739822  0.58482167    -0.75000
Al207      Al  0.73338647  0.43654370  0.62531515     1.90100
O208        O  0.74173832  0.36607498  0.63126540    -0.74100
O209        O  0.66374907  0.37889820  0.60619508    -0.74000
O210        O  0.68989238  0.35638118  0.65173457    -0.79600
O211        O  0.64532865  0.39951475  0.64178025    -0.77800
O212        O  0.70438913  0.41152028  0.63352809    -1.13900
O213        O  0.66419924  0.45421141  0.63408081    -0.73100
C214        C  0.68104885  0.47491597  0.62678978     0.97600
C215        C  0.76509234  0.38035669  0.62714926     0.94000
Al216      Al  0.70313622  0.37531579  0.61957994     1.55600
O217        O  0.74581442  0.44091465  0.66161051    -0.77800
C218        C  0.64183462  0.38463891  0.62066772     0.98100
C219        C  0.72140147  0.41238983  0.57451343     0.93000
O220        O  0.72445265  0.43501243  0.58886345    -0.83100
O221        O  0.56049975  0.72012338  0.40271331    -0.82500
C222        C  0.61820030  0.66974210  0.31493696     0.96800
O223        O  0.63009833  0.67385516  0.33758239    -0.71700
O224        O  0.62602058  0.72724666  0.35593413    -0.75300
Al225      Al  0.61528593  0.69042327  0.37006232     1.49000
C226        C  0.61376121  0.75193563  0.35806052     0.92100
O227        O  0.54735901  0.73268817  0.32857464    -0.81500
O228        O  0.53315088  0.65596547  0.36471802    -0.75000
Al229      Al  0.55553289  0.72445361  0.36561543     1.90100
O230        O  0.53593289  0.68709093  0.31845609    -0.74100
O231        O  0.58516309  0.63227002  0.35417402    -0.74000
O232        O  0.59048973  0.66944979  0.31195935    -0.79600
O233        O  0.61135196  0.65243014  0.38598953    -0.77800
O234        O  0.57793375  0.69289764  0.35844806    -1.13900
O235        O  0.60705171  0.70644306  0.40454235    -0.73100
C236        C  0.58368493  0.71491943  0.41592052     0.97600
C237        C  0.53421438  0.71428221  0.31368784     0.94000
Al238      Al  0.56258847  0.66370195  0.33907173     1.55600
O239        O  0.58677864  0.75353441  0.36410127    -0.77800
C240        C  0.60237555  0.62976605  0.37386969     0.98100
C241        C  0.51381664  0.67473003  0.37109730     0.93000
O242        O  0.51926317  0.70213778  0.36934108    -0.83100
O243        O  0.53335800  0.70413083  0.60806438    -0.82500
C244        C  0.63024356  0.67981401  0.67799303     0.96800
O245        O  0.60547924  0.66704674  0.67748238    -0.71700
O246        O  0.56126633  0.70214148  0.68106502    -0.75300
Al247      Al  0.57065821  0.67238349  0.65660402     1.49000
C248        C  0.54669408  0.72528291  0.67716122     0.92100
O249        O  0.59388678  0.75690670  0.63351178    -0.81500
O250        O  0.61289642  0.69012073  0.58722748    -0.75000
Al251      Al  0.56518608  0.72842156  0.62135170     1.90100
O252        O  0.63337671  0.73319755  0.62050833    -0.74100
O253        O  0.62340605  0.65049140  0.62387231    -0.74000
O254        O  0.63919225  0.69459684  0.65842010    -0.79600
O255        O  0.57838839  0.63875858  0.63511395    -0.77800
O256        O  0.58640118  0.69775002  0.63366722    -1.13900
O257        O  0.53234970  0.67241520  0.64102933    -0.73100
C258        C  0.52053747  0.68359972  0.62058042     0.97600
C259        C  0.62138121  0.75611733  0.62952469     0.94000
Al260      Al  0.62380108  0.69260196  0.62326856     1.55600
O261        O  0.54408810  0.73593803  0.65399376    -0.77800
C262        C  0.60346891  0.63132543  0.62677715     0.98100
C263        C  0.59799511  0.70861661  0.57418870     0.93000
O264        O  0.58155685  0.72703304  0.58596059    -0.83100
O265        O  0.27960156  0.55192526  0.40560450    -0.82500
C266        C  0.31474224  0.60969975  0.31120844     0.96800
O267        O  0.31218961  0.62176630  0.33381118    -0.71700
O268        O  0.25961548  0.61333893  0.35361270    -0.75300
Al269      Al  0.29785015  0.60690785  0.36709558     1.49000
C270        C  0.23651514  0.60017521  0.36080665     0.92100
O271        O  0.25576169  0.53468682  0.33323696    -0.81500
O272        O  0.33786376  0.52835803  0.36109408    -0.75000
Al273      Al  0.26907215  0.54464974  0.36915306     1.90100
O274        O  0.30049175  0.52729000  0.31823342    -0.74100
O275        O  0.35579737  0.58044581  0.34843048    -0.74000
O276        O  0.31388174  0.58206654  0.30872442    -0.79600
O277        O  0.33664652  0.60513556  0.38165421    -0.77800
O278        O  0.29715626  0.56910027  0.35747145    -1.13900
O279        O  0.28431068  0.60008322  0.40240438    -0.73100
C280        C  0.28318296  0.57695625  0.41636878     0.97600
C281        C  0.27293590  0.52396781  0.31587458     0.94000
Al282      Al  0.32466081  0.55565039  0.33590359     1.55600
O283        O  0.23788025  0.57425911  0.37023770    -0.77800
C284        C  0.35883183  0.59638939  0.36889874     0.98100
C285        C  0.32261656  0.50745669  0.37010048     0.93000
O286        O  0.29462135  0.50966945  0.37105564    -0.83100
O287        O  0.29522840  0.52835081  0.61562298    -0.82500
C288        C  0.31782542  0.63519372  0.67115047     0.96800
O289        O  0.33286819  0.61183768  0.67250181    -0.71700
O290        O  0.30235207  0.56551156  0.68555210    -0.75300
Al291      Al  0.32850182  0.57362536  0.65709701     1.49000
C292        C  0.28089357  0.54779732  0.68495518     0.92100
O293        O  0.24163588  0.58590680  0.64065819    -0.81500
O294        O  0.30071728  0.60171192  0.58452462    -0.75000
Al295      Al  0.26998582  0.55861070  0.62817626     1.90100
O296        O  0.25828647  0.62398076  0.61828833    -0.74100
O297        O  0.34279601  0.62289951  0.61679580    -0.74000
O298        O  0.29996920  0.63969929  0.65217586    -0.79600
O299        O  0.35862452  0.58059006  0.63175983    -0.77800
O300        O  0.29973508  0.58365043  0.63480866    -1.13900
O301        O  0.32982303  0.53324564  0.64628416    -0.73100
C302        C  0.31742818  0.51837450  0.62797585     0.97600
C303        C  0.23867959  0.61190534  0.63238689     0.94000
Al304      Al  0.30032577  0.61900522  0.61906892     1.55600
O305        O  0.26868412  0.54124825  0.66301425    -0.77800
C306        C  0.36374525  0.60507665  0.62085032     0.98100
C307        C  0.28180906  0.58354354  0.57564518     0.93000
O308        O  0.26488559  0.56993620  0.59146900    -0.83100
O309        O  0.44882223  0.26927289  0.40299762    -0.82500
C310        C  0.38081567  0.29829412  0.31233986     0.96800
O311        O  0.36965817  0.29350281  0.33508693    -0.71700
O312        O  0.38527959  0.24495160  0.35821135    -0.75300
Al313      Al  0.38827905  0.28415763  0.36905027     1.49000
C314        C  0.40251351  0.22368745  0.36109968     0.92100
O315        O  0.46252568  0.25343963  0.32945773    -0.81500
O316        O  0.46152913  0.33416776  0.36037651    -0.75000
Al317      Al  0.45401368  0.26298840  0.36598873     1.90100
O318        O  0.46363305  0.29910477  0.31565619    -0.74100
O319        O  0.40608573  0.34626386  0.34977219    -0.74000
O320        O  0.40748657  0.30551814  0.30981181    -0.79600
O321        O  0.38414276  0.32304396  0.38204854    -0.77800
O322        O  0.42524743  0.28852626  0.35719300    -1.13900
O323        O  0.40049676  0.27424723  0.40478912    -0.73100
C324        C  0.42538958  0.27175561  0.41632683     0.97600
C325        C  0.46869217  0.27211802  0.31169771     0.94000
Al326      Al  0.43391306  0.31863935  0.33592004     1.55600
O327        O  0.42949178  0.22786221  0.36643408    -0.77800
C328        C  0.38884079  0.34631613  0.36933641     0.98100
C329        C  0.48443648  0.32084961  0.36810835     0.93000
O330        O  0.48523789  0.29280772  0.36792138    -0.83100
O331        O  0.46992432  0.29948714  0.61569545    -0.82500
C332        C  0.36459479  0.30612978  0.67645113     0.96800
O333        O  0.38653450  0.32315133  0.67783037    -0.71700
O334        O  0.43222315  0.28999790  0.68604741    -0.75300
Al335      Al  0.42440795  0.32085830  0.66204557     1.49000
C336        C  0.45144957  0.27040579  0.68258433     0.92100
O337        O  0.41504663  0.23703983  0.63236367    -0.81500
O338        O  0.39259775  0.30436772  0.58738911    -0.75000
Al339      Al  0.44087072  0.26975244  0.62456282     1.90100
O340        O  0.37456854  0.25628244  0.61565938    -0.74100
O341        O  0.37399018  0.34006175  0.62554127    -0.74000
O342        O  0.35999543  0.29049374  0.65599118    -0.79600
O343        O  0.41732224  0.35420041  0.64063579    -0.77800
O344        O  0.41462196  0.29609403  0.63608156    -1.13900
O345        O  0.46464639  0.32468826  0.65265100    -0.73100
C346        C  0.47904904  0.31909057  0.63182080     0.97600
C347        C  0.38865973  0.23422478  0.62423394     0.94000
Al348      Al  0.37832987  0.29766639  0.62219862     1.55600
O349        O  0.45929229  0.26304911  0.65924132    -0.77800
C350        C  0.39248186  0.36038515  0.63066768     0.98100
C351        C  0.41064393  0.28830223  0.57494276     0.93000
O352        O  0.42808229  0.27134673  0.58755268    -0.83100
O353        O  0.93586855  0.22045254  0.58688037    -0.82500
C354        C  0.88855798  0.17984783  0.68393297     0.96800
O355        O  0.87405718  0.18104924  0.66222558    -0.71700
O356        O  0.87726840  0.23339915  0.64255403    -0.75300
Al357      Al  0.88506626  0.19665761  0.62771549     1.49000
C358        C  0.88808468  0.25780733  0.63612393     0.92100
O359        O  0.95483411  0.24153224  0.65886069    -0.81500
O360        O  0.96652409  0.16159814  0.62711798    -0.75000
Al361      Al  0.94457760  0.22964282  0.62312489     1.90100
O362        O  0.96918994  0.19749845  0.67142598    -0.74100
O363        O  0.91557825  0.13955915  0.64333929    -0.74000
O364        O  0.91635411  0.18012516  0.68398050    -0.79600
O365        O  0.88788260  0.15894924  0.61219251    -0.77800
O366        O  0.92333259  0.19930572  0.63495396    -1.13900
O367        O  0.88840260  0.21173619  0.59191832    -0.73100
C368        C  0.91045083  0.21616300  0.57693917     0.97600
C369        C  0.96756408  0.22493545  0.67557783     0.94000
Al370      Al  0.94054293  0.17183119  0.65471042     1.55600
O371        O  0.91286695  0.25901239  0.62452905    -0.77800
C372        C  0.89677266  0.13669344  0.62471526     0.98100
C373        C  0.98589125  0.17921731  0.61862118     0.93000
O374        O  0.98108881  0.20689451  0.61882659    -0.83100
O375        O  0.97514457  0.19757269  0.36439613    -0.82500
C376        C  0.86998555  0.16215624  0.31872767     0.96800
O377        O  0.89696003  0.16374324  0.31277416    -0.71700
O378        O  0.95061527  0.18415638  0.31342690    -0.75300
Al379      Al  0.92935362  0.15849155  0.33618118     1.49000
C380        C  0.94909425  0.21146289  0.30948780     0.92100
O381        O  0.90501801  0.24582747  0.36649293    -0.81500
O382        O  0.89223862  0.19664473  0.40781068    -0.75000
Al383      Al  0.93767100  0.21822691  0.36480695     1.90100
O384        O  0.86642865  0.21721527  0.36139420    -0.74100
O385        O  0.88868714  0.14225668  0.38794630    -0.74000
O386        O  0.86159915  0.16407933  0.34268887    -0.79600
O387        O  0.91129732  0.12550564  0.35269864    -0.77800
O388        O  0.91585050  0.18576890  0.35855704    -1.13900
O389        O  0.96339571  0.15110303  0.35741116    -0.73100
C390        C  0.98229783  0.17050285  0.36375877     0.97600
C391        C  0.87781483  0.24252708  0.36145996     0.94000
Al392      Al  0.88045182  0.18072607  0.37378459     1.55600
O393        O  0.94038017  0.22850367  0.32769691    -0.77800
C394        C  0.89757081  0.12084956  0.37403914     0.98100
C395        C  0.91636736  0.20626295  0.41736954     0.93000
O396        O  0.93767962  0.21241331  0.40223872    -0.83100
O397        O  0.07185457  0.77506042  0.58583158    -0.82500
C398        C  0.11801102  0.80784978  0.68690334     0.96800
O399        O  0.13368674  0.80284153  0.66658009    -0.71700
O400        O  0.12617146  0.75215030  0.64341103    -0.75300
Al401      Al  0.12315815  0.79104568  0.63060824     1.49000
C402        C  0.11351142  0.73007754  0.63343203     0.92100
O403        O  0.04847039  0.75161749  0.65583533    -0.81500
O404        O  0.04256027  0.83278009  0.62622438    -0.75000
Al405      Al  0.06095971  0.76440572  0.62112780     1.90100
O406        O  0.03854612  0.79635186  0.67053878    -0.74100
O407        O  0.09444896  0.85185130  0.64320099    -0.74000
O408        O  0.09081929  0.81270030  0.68455639    -0.79600
O409        O  0.12641584  0.82978474  0.61757845    -0.77800
O410        O  0.08422348  0.79242358  0.63529425    -1.13900
O411        O  0.11979225  0.77933196  0.59345160    -0.73100
C412        C  0.09803208  0.77766107  0.57728475     0.97600
C413        C  0.03693082  0.76859723  0.67295976     0.94000
Al414      Al  0.06801535  0.82111544  0.65438299     1.55600
O415        O  0.08931917  0.73302290  0.62121833    -0.77800
C416        C  0.11598078  0.85300876  0.62733044     0.98100
C417        C  0.02252565  0.81608533  0.61725943     0.93000
O418        O  0.02633722  0.78850475  0.61695647    -0.83100
O419        O  0.04517070  0.79598378  0.37617912    -0.82500
C420        C  0.15266696  0.81331840  0.32092859     0.96800
O421        O  0.12995967  0.82920026  0.32028678    -0.71700
O422        O  0.08454199  0.79742629  0.30618624    -0.75300
Al423      Al  0.09150478  0.82424892  0.33431986     1.49000
C424        C  0.06493683  0.77764969  0.30627322     0.92100
O425        O  0.09959415  0.73713320  0.35294805    -0.81500
O426        O  0.11999000  0.79601827  0.40784674    -0.75000
Al427      Al  0.07372886  0.76793174  0.36411701     1.90100
O428        O  0.13990420  0.75355230  0.37290042    -0.74100
O429        O  0.13980917  0.83801492  0.37562446    -0.74000
O430        O  0.15652546  0.79475530  0.33932365    -0.79600
O431        O  0.09738167  0.85383940  0.36006791    -0.77800
O432        O  0.10046760  0.79581198  0.35714534    -1.13900
O433        O  0.05102435  0.82654848  0.34286836    -0.73100
C434        C  0.03677065  0.81814647  0.36295398     0.97600
C435        C  0.12598903  0.73347560  0.36057446     0.94000
Al436      Al  0.13604449  0.79554121  0.37277507     1.55600
O437        O  0.05632380  0.76673219  0.32821861    -0.77800
C438        C  0.12147406  0.85871278  0.37194389     0.98100
C439        C  0.10064702  0.77867433  0.41693692     0.93000
O440        O  0.08472396  0.76345830  0.40116739    -0.83100
O441        O  0.78694120  0.93528109  0.58988158    -0.82500
C442        C  0.81460010  0.86709495  0.68113547     0.96800
O443        O  0.81640390  0.85780417  0.65732010    -0.71700
O444        O  0.76596255  0.86757475  0.63323274    -0.75300
Al445      Al  0.80497233  0.87665397  0.62407939     1.49000
C446        C  0.74274894  0.88172412  0.62802286     0.92100
O447        O  0.75907303  0.94419318  0.66125526    -0.81500
O448        O  0.84295653  0.95321645  0.64252704    -0.75000
Al449      Al  0.77501756  0.93830799  0.62613686     1.90100
O450        O  0.80169111  0.94999616  0.68128173    -0.74100
O451        O  0.85977808  0.90008083  0.65176014    -0.74000
O452        O  0.81288707  0.89421556  0.68612559    -0.79600
O453        O  0.84497086  0.88174222  0.61349217    -0.77800
O454        O  0.80230618  0.91287583  0.63754939    -1.13900
O455        O  0.79405061  0.88749308  0.58833346    -0.73100
C456        C  0.79044703  0.91189057  0.57656694     0.97600
C457        C  0.77400842  0.95170360  0.68148724     0.94000
Al458      Al  0.82717129  0.92348456  0.66322162     1.55600
O459        O  0.74402060  0.90868738  0.62125886    -0.77800
C460        C  0.86552475  0.88841995  0.62951268     0.98100
C461        C  0.82896029  0.97495308  0.63353114     0.93000
O462        O  0.80126459  0.97305565  0.62887799    -0.83100
O463        O  0.80150212  0.95128088  0.37993823    -0.82500
C464        C  0.83047979  0.85005927  0.31823991     0.96800
O465        O  0.84561287  0.87337520  0.32056005    -0.71700
O466        O  0.81486465  0.92024183  0.31151581    -0.75300
Al467      Al  0.83971881  0.90924827  0.33986463     1.49000
C468        C  0.78987591  0.93230359  0.31070927     0.92100
O469        O  0.74957742  0.89013541  0.35515829    -0.81500
O470        O  0.81057180  0.87020945  0.40663021    -0.75000
Al471      Al  0.77850345  0.91859620  0.36720809     1.90100
O472        O  0.77033854  0.85056245  0.37083593    -0.74100
O473        O  0.85262904  0.85533522  0.37399488    -0.74000
O474        O  0.81161680  0.84291360  0.33547875    -0.79600
O475        O  0.86917744  0.89954546  0.36583002    -0.77800
O476        O  0.80969670  0.89570383  0.35934319    -1.13900
O477        O  0.84024742  0.94789368  0.35443408    -0.73100
C478        C  0.82524745  0.96200196  0.37119566     0.97600
C479        C  0.74872351  0.86294004  0.36000578     0.94000
Al480      Al  0.81106393  0.85832021  0.37080755     1.55600
O481        O  0.77479983  0.93555725  0.33174080    -0.77800
C482        C  0.87343857  0.87370950  0.37421328     0.98100
C483        C  0.79358620  0.88831786  0.41793300     0.93000
O484        O  0.77737541  0.90571473  0.40433587    -0.83100
O485        O  0.22246050  0.05373745  0.58663674    -0.82500
C486        C  0.19363060  0.12732182  0.67423158     0.96800
O487        O  0.19210526  0.13475651  0.64987482    -0.71700
O488        O  0.24160860  0.12494890  0.62445053    -0.75300
Al489      Al  0.20235085  0.11389963  0.61751219     1.49000
C490        C  0.26493056  0.11093095  0.61973037     0.92100
O491        O  0.25056614  0.04868951  0.65842608    -0.81500
O492        O  0.16662557  0.03779750  0.64021404    -0.75000
Al493      Al  0.23424356  0.05318127  0.62306140     1.90100
O494        O  0.20827358  0.04433418  0.67867475    -0.74100
O495        O  0.14870034  0.09139116  0.64733060    -0.74000
O496        O  0.19612441  0.10062766  0.68082603    -0.79600
O497        O  0.16196343  0.10762111  0.60819744    -0.77800
O498        O  0.20645504  0.07879942  0.63314911    -1.13900
O499        O  0.21168904  0.10053888  0.58232585    -0.73100
C500        C  0.21693705  0.07565669  0.57203782     0.97600
C501        C  0.23575934  0.04079615  0.67839803     0.94000
Al502      Al  0.18216307  0.06935339  0.65946434     1.55600
O503        O  0.26462390  0.08307763  0.61704004    -0.77800
C504        C  0.14208188  0.10226259  0.62495428     0.98100
C505        C  0.18074287  0.01629764  0.63084435     0.93000
O506        O  0.20843039  0.01839841  0.62659898    -0.83100
O507        O  0.21667180  0.02722479  0.37595842    -0.82500
C508        C  0.19551241  0.12462454  0.30910975     0.96800
O509        O  0.17950739  0.10173929  0.31038289    -0.71700
O510        O  0.21116514  0.05498141  0.30518234    -0.75300
Al511      Al  0.18308479  0.06625603  0.33060989     1.49000
C512        C  0.23552476  0.04207009  0.30786396     0.92100
O513        O  0.26982208  0.08741063  0.35496918    -0.81500
O514        O  0.20101205  0.10628978  0.39939009    -0.75000
Al515      Al  0.24033895  0.05900888  0.36464697     1.90100
O516        O  0.24697086  0.12580478  0.37069277    -0.74100
O517        O  0.16381852  0.12112466  0.36070349    -0.74000
O518        O  0.21160386  0.13273913  0.32852184    -0.79600
O519        O  0.15089335  0.07559133  0.35326533    -0.77800
O520        O  0.21002182  0.08083223  0.35300330    -1.13900
O521        O  0.18153230  0.02796400  0.34578080    -0.73100
C522        C  0.19469789  0.01543096  0.36481550     0.97600
C523        C  0.27051577  0.11328949  0.36397363     0.94000
Al524      Al  0.20628406  0.11821948  0.36385579     1.55600
O525        O  0.24800004  0.04009911  0.33051606    -0.77800
C526        C  0.14406803  0.10144348  0.35991351     0.98100
C527        C  0.21810806  0.08986839  0.41277442     0.93000
O528        O  0.23712257  0.07354913  0.40128233    -0.83100
O529        O  0.79569256  0.00894203  0.12734179    -0.82500
C530        C  0.80848923  0.11389514  0.18140866     0.96800
O531        O  0.80965131  0.08650489  0.18546253    -0.71700
O532        O  0.80020481  0.03015404  0.17936760    -0.75300
Al533      Al  0.82290698  0.05868381  0.16062545     1.49000
C534        C  0.77282526  0.02606726  0.18132500     0.92100
O535        O  0.73533685  0.07078245  0.12448992    -0.81500
O536        O  0.78408005  0.09442776  0.08856756    -0.75000
Al537      Al  0.76811736  0.04263417  0.12727924     1.90100
O538        O  0.75640120  0.11287203  0.13486706    -0.74100
O539        O  0.83515190  0.10397136  0.11209677    -0.74000
O540        O  0.80706441  0.12415109  0.15786766    -0.79600
O541        O  0.85350015  0.08408134  0.14818904    -0.77800
O542        O  0.79535908  0.06908860  0.13723734    -1.13900
O543        O  0.83799602  0.03018071  0.13755526    -0.73100
C544        C  0.82382619  0.00814371  0.12894200     0.97600
C545        C  0.73344033  0.09788656  0.13068422     0.94000
Al546      Al  0.79545508  0.10574296  0.12436754     1.55600
O547        O  0.75548222  0.03520270  0.16334398    -0.77800
C548        C  0.85703887  0.09768571  0.12656474     0.98100
C549        C  0.78118857  0.06953893  0.07727447     0.93000
O550        O  0.77744659  0.04654108  0.09090364    -0.83100
O551        O  0.78977294  0.05565736  0.90697337    -0.82500
C552        C  0.81504005  0.11511285  0.81062404     0.96800
O553        O  0.81416472  0.12734130  0.83331930    -0.71700
O554        O  0.76369242  0.11647457  0.85627935    -0.75300
Al555      Al  0.80312669  0.11182334  0.86769320     1.49000
C556        C  0.74170543  0.10227307  0.86456881     0.92100
O557        O  0.76191954  0.03986835  0.83629489    -0.81500
O558        O  0.84598679  0.03421872  0.85904609    -0.75000
Al559      Al  0.77732002  0.04859877  0.87116306     1.90100
O560        O  0.80518782  0.03260385  0.81800662    -0.74100
O561        O  0.86134572  0.08815035  0.84589042    -0.74000
O562        O  0.81637668  0.08754691  0.80840653    -0.79600
O563        O  0.84302574  0.11217569  0.87987268    -0.77800
O564        O  0.80367732  0.07405354  0.85815051    -1.13900
O565        O  0.79203500  0.10405510  0.90401820    -0.73100
C566        C  0.79084091  0.08080320  0.91800145     0.97600
C567        C  0.77734450  0.03108303  0.81696280     0.94000
Al568      Al  0.83010585  0.06163312  0.83487224     1.55600
O569        O  0.74504340  0.07683843  0.87457587    -0.77800
C570        C  0.86479940  0.10544489  0.86553793     0.98100
C571        C  0.83177455  0.01231998  0.86764890     0.93000
O572        O  0.80392471  0.01417916  0.87068753    -0.83100
O573        O  0.97954482  0.78142303  0.12365355    -0.82500
C574        C  0.87717531  0.80397941  0.17559419     0.96800
O575        O  0.90464643  0.80740667  0.17853177    -0.71700
O576        O  0.96011018  0.79408186  0.17361474    -0.75300
Al577      Al  0.93256863  0.81591448  0.15241220     1.49000
C578        C  0.96189037  0.76697660  0.17880820     0.92100
O579        O  0.91623400  0.72495962  0.12467815    -0.81500
O580        O  0.89401731  0.77158728  0.08454269    -0.75000
Al581      Al  0.94493144  0.75650445  0.12538890     1.90100
O582        O  0.87478664  0.74766900  0.13254524    -0.74100
O583        O  0.88429768  0.82413284  0.10480007    -0.74000
O584        O  0.86571274  0.79964364  0.15270386    -0.79600
O585        O  0.90801546  0.84575026  0.13734022    -0.77800
O586        O  0.91999277  0.78601402  0.13222267    -1.13900
O587        O  0.96222127  0.82646841  0.12774136    -0.73100
C588        C  0.98307749  0.80914373  0.12200875     0.97600
C589        C  0.88911753  0.72421037  0.13014824     0.94000
Al590      Al  0.88297591  0.78564183  0.11965320     1.55600
O591        O  0.95127034  0.74807320  0.16277858    -0.77800
C592        C  0.89093523  0.84716490  0.11747578     0.98100
C593        C  0.91872394  0.76558654  0.07398068     0.93000
O594        O  0.94146695  0.76176380  0.08825455    -0.83100
O595        O  0.94001153  0.76797120  0.90470154    -0.82500
C596        C  0.88992437  0.80185606  0.80615194     0.96800
O597        O  0.87524395  0.79696115  0.82705841    -0.71700
O598        O  0.88318565  0.74592683  0.84915407    -0.75300
Al599      Al  0.88702696  0.78491244  0.86223900     1.49000
C600        C  0.89609003  0.72360814  0.85823831     0.92100
O601        O  0.96119355  0.74680445  0.83337160    -0.81500
O602        O  0.96769203  0.82786431  0.86428176    -0.75000
Al603      Al  0.94967207  0.75855256  0.86882443     1.90100
O604        O  0.97036498  0.79206259  0.81976855    -0.74100
O605        O  0.91456312  0.84618529  0.84886096    -0.74000
O606        O  0.91722468  0.80676626  0.80723732    -0.79600
O607        O  0.88414228  0.82387987  0.87582000    -0.77800
O608        O  0.92575716  0.78664120  0.85614563    -1.13900
O609        O  0.89186690  0.77256432  0.89880783    -0.73100
C610        C  0.91416273  0.76988927  0.91413741     0.97600
C611        C  0.97255440  0.76447658  0.81671858     0.94000
Al612      Al  0.94103540  0.81581431  0.83682912     1.55600
O613        O  0.92125726  0.72636349  0.86894997    -0.77800
C614        C  0.89377507  0.84725740  0.86553036     0.98100
C615        C  0.98822498  0.81122154  0.87224143     0.93000
O616        O  0.98429009  0.78353559  0.87252207    -0.83100
O617        O  0.20822613  0.96066820  0.11476416    -0.82500
C618        C  0.19201751  0.85839282  0.17836340     0.96800
O619        O  0.17669176  0.88157339  0.17899009    -0.71700
O620        O  0.21015543  0.92679298  0.18564666    -0.75300
Al621      Al  0.18012407  0.91829192  0.16087724     1.49000
C622        C  0.23289596  0.94232223  0.18265388     0.92100
O623        O  0.26517071  0.90132145  0.13369947    -0.81500
O624        O  0.19658904  0.88302450  0.08836864    -0.75000
Al625      Al  0.23465186  0.92944155  0.12492835     1.90100
O626        O  0.24227234  0.86217264  0.11838075    -0.74100
O627        O  0.15951118  0.86710157  0.12567799    -0.74000
O628        O  0.20643292  0.85151548  0.15782794    -0.79600
O629        O  0.14649934  0.91099490  0.13903147    -0.77800
O630        O  0.20551119  0.90579592  0.13641162    -1.13900
O631        O  0.17803472  0.95779891  0.14860451    -0.73100
C632        C  0.18734051  0.97126559  0.12834978     0.97600
C633        C  0.26529619  0.87432173  0.12737099     0.94000
Al634      Al  0.20157900  0.86920973  0.12354770     1.55600
O635        O  0.24268173  0.94777173  0.15951516    -0.77800
C636        C  0.13977811  0.88622285  0.12934409     0.98100
C637        C  0.21352701  0.90003075  0.07564452     0.93000
O638        O  0.23212388  0.91618958  0.08798563    -0.83100
O639        O  0.24319468  0.92343094  0.90159093    -0.82500
C640        C  0.19184604  0.86288355  0.81785719     0.96800
O641        O  0.20986575  0.85731420  0.83649364    -0.71700
O642        O  0.25002690  0.86923980  0.87321242    -0.75300
Al643      Al  0.20834932  0.87575875  0.87073256     1.49000
C644        C  0.27096150  0.88089613  0.86055101     0.92100
O645        O  0.24421388  0.95288107  0.82896118    -0.81500
O646        O  0.18151495  0.96343387  0.84638855    -0.75000
Al647      Al  0.24085693  0.93557680  0.86442050     1.90100
O648        O  0.20822626  0.93126939  0.80687293    -0.74100
O649        O  0.15117631  0.91660145  0.85970362    -0.74000
O650        O  0.17619822  0.88590341  0.81813985    -0.79600
O651        O  0.16567387  0.87267489  0.87151069    -0.77800
O652        O  0.21029035  0.91183096  0.85666268    -1.13900
O653        O  0.20695009  0.89124439  0.90573771    -0.73100
C654        C  0.22552596  0.90879158  0.91615000     0.97600
C655        C  0.23142841  0.94655904  0.80709781     0.94000
Al656      Al  0.18177243  0.92346688  0.83468062     1.55600
O657        O  0.26925227  0.90724288  0.85282402    -0.77800
C658        C  0.14520334  0.89134349  0.86864072     0.98100
C659        C  0.19426977  0.97757893  0.86490945     0.93000
O660        O  0.21660710  0.96701493  0.87656461    -0.83100
O661        O  0.02019399  0.20059707  0.12083548    -0.82500
C662        C  0.11536723  0.17058251  0.18012573     0.96800
O663        O  0.08753211  0.17091350  0.18202546    -0.71700
O664        O  0.03351564  0.18906259  0.17255354    -0.75300
Al665      Al  0.06006219  0.16270128  0.15510695     1.49000
C666        C  0.03583039  0.21623237  0.17707099     0.92100
O667        O  0.09161821  0.24798755  0.12754079    -0.81500
O668        O  0.10569773  0.19290287  0.08583273    -0.75000
Al669      Al  0.05808566  0.22136346  0.12513113     1.90100
O670        O  0.12867414  0.21770628  0.13198935    -0.74100
O671        O  0.10620976  0.14172710  0.11042396    -0.74000
O672        O  0.12799723  0.16870773  0.15748610    -0.79600
O673        O  0.08122281  0.12814836  0.14502250    -0.77800
O674        O  0.07758399  0.18847218  0.13373581    -1.13900
O675        O  0.03150439  0.15400189  0.12889093    -0.73100
C676        C  0.01347268  0.17319077  0.12038547     0.97600
C677        C  0.11855245  0.24332010  0.13264216     0.94000
Al678      Al  0.11400617  0.18101812  0.12222068     1.55600
O679        O  0.05079255  0.23212409  0.16166257    -0.77800
C680        C  0.09727512  0.12162700  0.12555128     0.98100
C681        C  0.08360771  0.20498329  0.07461862     0.93000
O682        O  0.06292557  0.21555456  0.08829665    -0.83100
O683        O  0.07109555  0.21007924  0.90256328    -0.82500
C684        C  0.13813308  0.18495308  0.80973266     0.96800
O685        O  0.14776100  0.18533508  0.83343538    -0.71700
O686        O  0.13621916  0.23592207  0.85672892    -0.75300
Al687      Al  0.12945552  0.19611527  0.86644713     1.49000
C688        C  0.12129416  0.25801819  0.86375164     0.92100
O689        O  0.05881217  0.23917958  0.83119564    -0.81500
O690        O  0.05162737  0.15519943  0.84964106    -0.75000
Al691      Al  0.06628213  0.22301567  0.86630418     1.90100
O692        O  0.05501162  0.19663533  0.81064137    -0.74100
O693        O  0.10570409  0.13991192  0.84076926    -0.74000
O694        O  0.11079338  0.18538182  0.80499775    -0.79600
O695        O  0.12720181  0.15567050  0.87742961    -0.77800
O696        O  0.09241566  0.19684385  0.85400901    -1.13900
O697        O  0.11943601  0.20640371  0.90208854    -0.73100
C698        C  0.09548031  0.20727702  0.91483348     0.97600
C699        C  0.05188222  0.22415154  0.81077717     0.94000
Al700      Al  0.08171534  0.17150042  0.82874537     1.55600
O701        O  0.09482100  0.25491100  0.87145738    -0.77800
C702        C  0.11961571  0.13476860  0.86212724     0.98100
C703        C  0.02982782  0.16898372  0.85883772     0.93000
O704        O  0.03195791  0.19645619  0.86375281    -0.83100
C705        C  0.08127071  0.20686732  0.04502293    -0.06000
C706        C  0.05492879  0.21698003  0.03300417    -0.05900
C707        C  0.05209130  0.21874377  0.00523117    -0.24100
C708        C  0.07558296  0.21059332  0.98875726     0.18100
C709        C  0.10220345  0.20055150  0.00057739     0.15400
C710        C  0.10484646  0.19862186  0.02854120    -0.19100
C711        C  0.12583457  0.19267595  0.98422160    -0.20900
C712        C  0.12328184  0.19486797  0.95652138    -0.13500
C713        C  0.09696870  0.20479909  0.94439472     0.03200
C714        C  0.07301682  0.21245994  0.96072714    -0.25600
H715        H  0.03628510  0.22343140  0.04510545     0.08300
H716        H  0.03151399  0.22654228  0.99665492     0.11900
H717        H  0.12528906  0.19086942  0.03743554     0.11800
H718        H  0.14640007  0.18491701  0.99285270     0.11500
H719        H  0.14207376  0.18861046  0.94452170     0.12100
H720        H  0.05265248  0.22023938  0.95170653     0.14000
C721        C  0.12707218  0.10373043  0.86789590    -0.06000
C722        C  0.10791610  0.08165652  0.85824009    -0.05900
C723        C  0.11642486  0.05220497  0.85814282    -0.24100
C724        C  0.14445434  0.04422077  0.86745105     0.18100
C725        C  0.16339171  0.06584409  0.87874121     0.15400
C726        C  0.15440804  0.09562798  0.87920874    -0.19100
C727        C  0.19149391  0.05739248  0.88797134    -0.20900
C728        C  0.20122380  0.02825659  0.88468839    -0.13500
C729        C  0.18302194  0.00716933  0.87208543     0.03200
C730        C  0.15429381  0.01518042  0.86434775    -0.25600
H731        H  0.08664383  0.08739089  0.84969317     0.08300
H732        H  0.10155646  0.03584532  0.84968419     0.11900
H733        H  0.16936906  0.11254734  0.88655241     0.11800
H734        H  0.20631411  0.07350660  0.89685540     0.11500
H735        H  0.22341897  0.02254646  0.89095541     0.12100
H736        H  0.13988230  0.99901203  0.85494080     0.14000
C737        C  0.10732127  0.09067989  0.12231557    -0.06000
C738        C  0.09152678  0.06785954  0.13476578    -0.05900
C739        C  0.10331287  0.03950801  0.13658884    -0.24100
C740        C  0.13137133  0.03343042  0.12631642     0.18100
C741        C  0.14703527  0.05570356  0.11266673     0.15400
C742        C  0.13474064  0.08418449  0.11046556    -0.19100
C743        C  0.17522612  0.04934126  0.10253779    -0.20900
C744        C  0.18812421  0.02156262  0.10670716    -0.13500
C745        C  0.17312416  0.99973492  0.12120966     0.03200
C746        C  0.14442765  0.00574674  0.13041768    -0.25600
H747        H  0.07040989  0.07222803  0.14399892     0.08300
H748        H  0.09093055  0.02260003  0.14694903     0.11900
H749        H  0.14730050  0.10165122  0.10106435     0.11800
H750        H  0.18760233  0.06607798  0.09196249     0.11500
H751        H  0.21019684  0.01749309  0.09939195     0.12100
H752        H  0.13242225  0.98900688  0.14137753     0.14000
C753        C  0.21169985  0.90008986  0.04595712    -0.06000
C754        C  0.19125390  0.88136694  0.03301154    -0.05900
C755        C  0.18973339  0.87987730  0.00522937    -0.24100
C756        C  0.20861773  0.89706360  0.98962090     0.18100
C757        C  0.22899114  0.91639372  0.00214619     0.15400
C758        C  0.23039961  0.91785144  0.03028267    -0.19100
C759        C  0.24775478  0.93359566  0.98623573    -0.20900
C760        C  0.24662340  0.93130390  0.95830664    -0.13500
C761        C  0.22667876  0.91179107  0.94572330     0.03200
C762        C  0.20756490  0.89493464  0.96167305    -0.25600
H763        H  0.17647952  0.86748672  0.04439027     0.08300
H764        H  0.17391026  0.86501414  0.99594147     0.11900
H765        H  0.24622301  0.93245567  0.03990348     0.11800
H766        H  0.26346181  0.94866743  0.99538761     0.11500
H767        H  0.26146691  0.94472275  0.94656333     0.12100
H768        H  0.19192214  0.87988078  0.95236786     0.14000
C769        C  0.01797570  0.82366209  0.87851797    -0.06000
C770        C  0.04081859  0.80501549  0.88734041    -0.05900
C771        C  0.06997549  0.81521104  0.88913860    -0.24100
C772        C  0.07703881  0.84426126  0.88199028     0.18100
C773        C  0.05420683  0.86357596  0.87398508     0.15400
C774        C  0.02483736  0.85325257  0.87247793    -0.19100
C775        C  0.06132775  0.89255727  0.86662244    -0.20900
C776        C  0.09080373  0.90199080  0.86626177    -0.13500
C777        C  0.11387319  0.88269325  0.87329371     0.03200
C778        C  0.10664028  0.85394507  0.88172295    -0.25600
H779        H  0.03632232  0.78214406  0.89202985     0.08300
H780        H  0.08715405  0.80006987  0.89537142     0.11900
H781        H  0.00760293  0.86788495  0.86538436     0.11800
H782        H  0.04415720  0.90772042  0.86041315     0.11500
H783        H  0.09559312  0.92416082  0.85952313     0.12100
H784        H  0.12410075  0.83869350  0.88704988     0.14000
C785        C  0.10851787  0.87858483  0.12388443    -0.06000
C786        C  0.08578541  0.89840320  0.13024103    -0.05900
C787        C  0.05620493  0.88958495  0.12860804    -0.24100
C788        C  0.04888922  0.86072805  0.12081503     0.18100
C789        C  0.07153501  0.84105031  0.11333060     0.15400
C790        C  0.10110057  0.85019654  0.11460951    -0.19100
C791        C  0.06437100  0.81207033  0.10593503    -0.20900
C792        C  0.03521973  0.80214950  0.10736181    -0.13500
C793        C  0.01265604  0.82113411  0.11587081     0.03200
C794        C  0.01952562  0.85076158  0.12167574    -0.25600
H795        H  0.09088740  0.92041746  0.13736327     0.08300
H796        H  0.03912624  0.90500152  0.13435029     0.11900
H797        H  0.11838309  0.83467601  0.10958255     0.11800
H798        H  0.08146810  0.79673684  0.10005068     0.11500
H799        H  0.03050115  0.77927510  0.10269552     0.12100
H800        H  0.00236237  0.86559487  0.12841849     0.14000
C801        C  0.92159945  0.76328734  0.04449843    -0.06000
C802        C  0.94911078  0.75603770  0.03331178    -0.05900
C803        C  0.95289129  0.75527920  0.00568878    -0.24100
C804        C  0.92927222  0.76180448  0.98854517     0.18100
C805        C  0.90132523  0.76854983  0.99939086     0.15400
C806        C  0.89762380  0.76920389  0.02729243    -0.19100
C807        C  0.87770968  0.77492775  0.98210636    -0.20900
C808        C  0.88185086  0.77505664  0.95444159    -0.13500
C809        C  0.90971153  0.76889214  0.94346520     0.03200
C810        C  0.93329187  0.76203953  0.96075547    -0.25600
H811        H  0.96799115  0.75126154  0.04595453     0.08300
H812        H  0.97443461  0.74992382  0.99774366     0.11900
H813        H  0.87628368  0.77479187  0.03555627     0.11800
H814        H  0.85608789  0.78007425  0.98998092     0.11500
H815        H  0.86325235  0.78035885  0.94163281     0.12100
H816        H  0.95484796  0.75703842  0.95262810     0.14000
C817        C  0.87945660  0.87596979  0.87185071    -0.06000
C818        C  0.85023823  0.87681272  0.88132680    -0.05900
C819        C  0.83526415  0.90370501  0.88408497    -0.24100
C820        C  0.84928869  0.93041387  0.87772328     0.18100
C821        C  0.87911125  0.92983668  0.86946133     0.15400
C822        C  0.89386709  0.90275564  0.86638660    -0.19100
C823        C  0.89352528  0.95633453  0.86363532    -0.20900
C824        C  0.87832512  0.98302314  0.86475563    -0.13500
C825        C  0.84813173  0.98404111  0.87144407     0.03200
C826        C  0.83387688  0.95752492  0.87858622    -0.25600
H827        H  0.83851266  0.85653801  0.88561745     0.08300
H828        H  0.81250254  0.90353733  0.89063691     0.11900
H829        H  0.91641238  0.90250630  0.85921292     0.11800
H830        H  0.91644962  0.95638488  0.85753324     0.11500
H831        H  0.89013091  0.00288030  0.85925311     0.12100
H832        H  0.81068885  0.95781130  0.88382425     0.14000
C833        C  0.89416223  0.11929418  0.87045310    -0.06000
C834        C  0.89649205  0.14668366  0.88359880    -0.05900
C835        C  0.92360599  0.16173407  0.88497878    -0.24100
C836        C  0.94904397  0.14953341  0.87352025     0.18100
C837        C  0.94709229  0.12140001  0.86134660     0.15400
C838        C  0.91978660  0.10661295  0.85975894    -0.19100
C839        C  0.97235134  0.10873384  0.85031440    -0.20900
C840        C  0.99913089  0.12399329  0.85061679    -0.13500
C841        C  0.00143304  0.15252853  0.86171037     0.03200
C842        C  0.97618804  0.16509421  0.87346857    -0.25600
H843        H  0.87706986  0.15705573  0.89188084     0.08300
H844        H  0.92453815  0.18316635  0.89455727     0.11900
H845        H  0.91836362  0.08545708  0.84968153     0.11800
H846        H  0.97132106  0.08713942  0.84102673     0.11500
H847        H  0.01797663  0.11359261  0.84133760     0.12100
H848        H  0.97751805  0.18699049  0.88211787     0.14000
C849        C  0.87672053  0.87566414  0.11095892    -0.06000
C850        C  0.84769974  0.87641273  0.10075546    -0.05900
C851        C  0.83169537  0.90287325  0.10038654    -0.24100
C852        C  0.84454273  0.92907576  0.11002178     0.18100
C853        C  0.87441356  0.92872471  0.11853002     0.15400
C854        C  0.89020748  0.90214980  0.11899975    -0.19100
C855        C  0.88771956  0.95470627  0.12765414    -0.20900
C856        C  0.87131748  0.98051776  0.12965575    -0.13500
C857        C  0.84103479  0.98104471  0.12286095     0.03200
C858        C  0.82789306  0.95527654  0.11234537    -0.25600
H859        H  0.83674340  0.85621805  0.09462354     0.08300
H860        H  0.80895223  0.90260528  0.09351745     0.11900
H861        H  0.91260747  0.90183434  0.12681838     0.11800
H862        H  0.91065984  0.95490151  0.13399129     0.11500
H863        H  0.88231214  0.99992297  0.13758657     0.12100
H864        H  0.80471214  0.95534955  0.10680270     0.14000
C865        C  0.98328794  0.16330401  0.11279361    -0.06000
C866        C  0.96066059  0.18369907  0.10751447    -0.05900
C867        C  0.93111843  0.17440568  0.10592811    -0.24100
C868        C  0.92370694  0.14466623  0.11009953     0.18100
C869        C  0.94652287  0.12387053  0.11406228     0.15400
C870        C  0.97602649  0.13319554  0.11473325    -0.19100
C871        C  0.93945767  0.09432787  0.11916223    -0.20900
C872        C  0.91006706  0.08576050  0.12204324    -0.13500
C873        C  0.88720893  0.10631459  0.11899487     0.03200
C874        C  0.89400186  0.13558219  0.11203574    -0.25600
H875        H  0.96561732  0.20699998  0.10588828     0.08300
H876        H  0.91398412  0.19068965  0.10278279     0.11900
H877        H  0.99317337  0.11711205  0.11871501     0.11800
H878        H  0.95670494  0.07813638  0.12224337     0.11500
H879        H  0.90513624  0.06313904  0.12739928     0.12100
H880        H  0.87637540  0.15158369  0.11006671     0.14000
C881        C  0.78249932  0.06695370  0.04775436    -0.06000
C882        C  0.78199411  0.03893161  0.03557248    -0.05900
C883        C  0.78382903  0.03601182  0.00786233    -0.24100
C884        C  0.78616864  0.06105190  0.99168396     0.18100
C885        C  0.78675906  0.08933577  0.00363883     0.15400
C886        C  0.78497715  0.09212095  0.03155418    -0.19100
C887        C  0.78908631  0.11437113  0.98744642    -0.20900
C888        C  0.79065003  0.11146494  0.95971136    -0.13500
C889        C  0.78996987  0.08345599  0.94753399     0.03200
C890        C  0.78781220  0.05827492  0.96376793    -0.25600
H891        H  0.78033923  0.01911123  0.04750102     0.08300
H892        H  0.78341107  0.01414288  0.99909357     0.11900
H893        H  0.78551429  0.11385018  0.04062029     0.11800
H894        H  0.78958399  0.13623666  0.99621898     0.11500
H895        H  0.79225470  0.13127402  0.94776771     0.12100
H896        H  0.78721187  0.03653801  0.95471785     0.14000
C897        C  0.24795220  0.02802712  0.28383427    -0.06000
C898        C  0.25075697  0.04470469  0.26039169    -0.05900
C899        C  0.25390059  0.03087970  0.23558227    -0.24100
C900        C  0.25324248  0.00003304  0.23368466     0.18100
C901        C  0.25205250  0.98303317  0.25735789     0.15400
C902        C  0.25001615  0.99717436  0.28235990    -0.19100
C903        C  0.25027990  0.95224331  0.25546170    -0.20900
C904        C  0.24704865  0.93868275  0.23052919    -0.13500
C905        C  0.24609920  0.95549861  0.20699800     0.03200
C906        C  0.25092010  0.98606123  0.20857615    -0.25600
H907        H  0.24885805  0.06847757  0.26115225     0.08300
H908        H  0.25480245  0.04431781  0.21774458     0.11900
H909        H  0.24704280  0.98418260  0.30030155     0.11800
H910        H  0.24944956  0.93878883  0.27329543     0.11500
H911        H  0.24357379  0.91508929  0.22969641     0.12100
H912        H  0.24967322  0.99923073  0.19056300     0.14000
C913        C  0.19359440  0.14190617  0.28463252    -0.06000
C914        C  0.20969853  0.13297859  0.26221353    -0.05900
C915        C  0.20009873  0.14058627  0.23652041    -0.24100
C916        C  0.17377979  0.15646485  0.23309402     0.18100
C917        C  0.15890502  0.16735525  0.25586681     0.15400
C918        C  0.16927292  0.16046516  0.28146247    -0.19100
C919        C  0.13229535  0.18252094  0.25283321    -0.20900
C920        C  0.11916289  0.18472122  0.22776445    -0.13500
C921        C  0.13255968  0.17217344  0.20518810     0.03200
C922        C  0.16069935  0.15943671  0.20766579    -0.25600
H923        H  0.22826566  0.11819037  0.26450831     0.08300
H924        H  0.21192533  0.13213738  0.21940902     0.11900
H925        H  0.15648665  0.16668503  0.29883093     0.11800
H926        H  0.12078346  0.19121169  0.27003359     0.11500
H927        H  0.09780666  0.19534327  0.22619704     0.12100
H928        H  0.17121846  0.14987581  0.19031404     0.14000
C929        C  0.21743113  0.07254285  0.54251771    -0.06000
C930        C  0.22819386  0.04671537  0.53039552    -0.05900
C931        C  0.23058145  0.04469741  0.50256663    -0.24100
C932        C  0.22210006  0.06841087  0.48629704     0.18100
C933        C  0.21049621  0.09411664  0.49830369     0.15400
C934        C  0.20829912  0.09603018  0.52619123    -0.19100
C935        C  0.20150474  0.11770367  0.48225419    -0.20900
C936        C  0.20407383  0.11599754  0.45457461    -0.13500
C937        C  0.21599408  0.09082104  0.44227801     0.03200
C938        C  0.22505320  0.06699743  0.45830776    -0.25600
H939        H  0.23535850  0.02825160  0.54246275     0.08300
H940        H  0.23932994  0.02470595  0.49380005     0.11900
H941        H  0.19974843  0.11600801  0.53518145     0.11800
H942        H  0.19250600  0.13753985  0.49111160     0.11500
H943        H  0.19697617  0.13467073  0.44273045     0.12100
H944        H  0.23397562  0.04735400  0.44902894     0.14000
C945        C  0.24928144  0.02611371  0.70164630    -0.06000
C946        C  0.25810944  0.04282785  0.72394332    -0.05900
C947        C  0.26113256  0.02952597  0.74909481    -0.24100
C948        C  0.25455786  0.99943620  0.75239757     0.18100
C949        C  0.24747992  0.98220604  0.72961853     0.15400
C950        C  0.24526876  0.99558989  0.70440629    -0.19100
C951        C  0.24010261  0.95240779  0.73269663    -0.20900
C952        C  0.23720465  0.94039445  0.75816164    -0.13500
C953        C  0.24216793  0.95769674  0.78109530     0.03200
C954        C  0.25237739  0.98687067  0.77811234    -0.25600
H955        H  0.26055352  0.06652585  0.72227714     0.08300
H956        H  0.26659904  0.04316497  0.76622185     0.11900
H957        H  0.23765205  0.98279447  0.68736144     0.11800
H958        H  0.23479381  0.93884583  0.71547154     0.11500
H959        H  0.22954016  0.91782472  0.75998429     0.12100
H960        H  0.25595999  0.00046599  0.79567171     0.14000
C961        C  0.15859247  0.18083322  0.78742839    -0.06000
C962        C  0.18385790  0.16335628  0.79100189    -0.05900
C963        C  0.19901559  0.15249889  0.76891259    -0.24100
C964        C  0.18913161  0.15918113  0.74305617     0.18100
C965        C  0.16551395  0.17915946  0.73940956     0.15400
C966        C  0.15042597  0.18993104  0.76167546    -0.19100
C967        C  0.15580853  0.18605735  0.71354507    -0.20900
C968        C  0.16746760  0.17115520  0.69162357    -0.13500
C969        C  0.18880938  0.14915138  0.69539701     0.03200
C970        C  0.20071375  0.14434941  0.72095662    -0.25600
H971        H  0.19047603  0.15615314  0.81075801     0.08300
H972        H  0.21729197  0.13748455  0.77203790     0.11900
H973        H  0.13107436  0.20365416  0.75889564     0.11800
H974        H  0.13793166  0.20154164  0.71041192     0.11500
H975        H  0.15795722  0.17499758  0.67203568     0.12100
H976        H  0.21729865  0.12741247  0.72386404     0.14000
C977        C  0.83631479  0.83097095  0.29540079    -0.06000
C978        C  0.86150793  0.81315314  0.29600328    -0.05900
C979        C  0.87214328  0.80063321  0.27254204    -0.24100
C980        C  0.85802557  0.80644649  0.24813942     0.18100
C981        C  0.83164562  0.82308691  0.24754340     0.15400
C982        C  0.82073877  0.83507406  0.27138841    -0.19100
C983        C  0.81799718  0.82924117  0.22290125    -0.20900
C984        C  0.83160798  0.82093994  0.19900999    -0.13500
C985        C  0.85888778  0.80636558  0.19962013     0.03200
C986        C  0.87119421  0.79790984  0.22421660    -0.25600
H987        H  0.87387903  0.81033464  0.31441707     0.08300
H988        H  0.89237185  0.78791978  0.27325804     0.11900
H989        H  0.80157241  0.84935166  0.27100081     0.11800
H990        H  0.79771810  0.84184634  0.22207537     0.11500
H991        H  0.82188199  0.82764149  0.18016829     0.12100
H992        H  0.89217712  0.78640426  0.22471587     0.14000
C993        C  0.77921715  0.94272083  0.28432869    -0.06000
C994        C  0.78745850  0.92674814  0.26147771    -0.05900
C995        C  0.78335420  0.93842381  0.23601252    -0.24100
C996        C  0.77139874  0.96663252  0.23284752     0.18100
C997        C  0.76127468  0.98232659  0.25545624     0.15400
C998        C  0.76480316  0.96999935  0.28118030    -0.19100
C999        C  0.74994377  0.01093035  0.25199801    -0.20900
C1000       C  0.75081701  0.02455882  0.22685386    -0.13500
C1001       C  0.76247409  0.00957670  0.20477690     0.03200
C1002       C  0.77166824  0.98025496  0.20771805    -0.25600
H1003       H  0.79833514  0.90560069  0.26340486     0.08300
H1004       H  0.79103176  0.92603196  0.21889313     0.11900
H1005       H  0.75857302  0.98255961  0.29868678     0.11800
H1006       H  0.74211280  0.02340142  0.26899785     0.11500
H1007       H  0.74437947  0.04746454  0.22505888     0.12100
H1008       H  0.78135453  0.96891720  0.19081732     0.14000
C1009       C  0.78975657  0.91273714  0.54688140    -0.06000
C1010       C  0.78118166  0.93843341  0.53319602    -0.05900
C1011       C  0.77953344  0.93882831  0.50523866    -0.24100
C1012       C  0.78661356  0.91358725  0.49035606     0.18100
C1013       C  0.79566870  0.88779463  0.50393352     0.15400
C1014       C  0.79704473  0.88748864  0.53196381    -0.19100
C1015       C  0.80329468  0.86266768  0.48926872    -0.20900
C1016       C  0.80216614  0.86305585  0.46143710    -0.13500
C1017       C  0.79302428  0.88843149  0.44755528     0.03200
C1018       C  0.78505395  0.91368551  0.46220139    -0.25600
H1019       H  0.77539564  0.95819459  0.54413037     0.08300
H1020       H  0.77268188  0.95888045  0.49526718     0.11900
H1021       H  0.80384632  0.86752857  0.54214859     0.11800
H1022       H  0.81034869  0.84272644  0.49932135     0.11500
H1023       H  0.80845370  0.84330723  0.45070019     0.12100
H1024       H  0.77836695  0.93349890  0.45173399     0.14000
C1025       C  0.81786108  0.84707061  0.70375967    -0.06000
C1026       C  0.80060836  0.85140440  0.72658391    -0.05900
C1027       C  0.80900445  0.83900220  0.75090964    -0.24100
C1028       C  0.83543001  0.82314468  0.75284686     0.18100
C1029       C  0.85211771  0.81749183  0.72956885     0.15400
C1030       C  0.84265350  0.82873714  0.70495634    -0.19100
C1031       C  0.87937880  0.80316135  0.73169331    -0.20900
C1032       C  0.89106033  0.79665154  0.75679850    -0.13500
C1033       C  0.87519257  0.80340247  0.78002499     0.03200
C1034       C  0.84672980  0.81521861  0.77790895    -0.25600
H1035       H  0.78153410  0.86574006  0.72585899     0.08300
H1036       H  0.79600841  0.84361010  0.76851374     0.11900
H1037       H  0.85635843  0.82606942  0.68743291     0.11800
H1038       H  0.89247412  0.79870421  0.71411273     0.11500
H1039       H  0.91303521  0.78740768  0.75812800     0.12100
H1040       H  0.83460711  0.82074172  0.79583101     0.14000
C1041       C  0.76032305  0.96094223  0.70667503    -0.06000
C1042       C  0.76012128  0.94049586  0.72764405    -0.05900
C1043       C  0.75881213  0.94994961  0.75416838    -0.24100
C1044       C  0.75788470  0.98013315  0.76013472     0.18100
C1045       C  0.75524809  0.00079145  0.73907679     0.15400
C1046       C  0.75646757  0.99102569  0.71236676    -0.19100
C1047       C  0.75420676  0.03099294  0.74513838    -0.20900
C1048       C  0.75837558  0.04065594  0.77145272    -0.13500
C1049       C  0.76364291  0.02038747  0.79203662     0.03200
C1050       C  0.76220244  0.99009125  0.78651679    -0.25600
H1051       H  0.76361095  0.91730909  0.72355580     0.08300
H1052       H  0.76060219  0.93378280  0.76998832     0.11900
H1053       H  0.75731976  0.00693128  0.69625652     0.11800
H1054       H  0.75193021  0.04718308  0.72938770     0.11500
H1055       H  0.75951468  0.06407929  0.77551588     0.12100
H1056       H  0.76667924  0.97442775  0.80235231     0.14000
C1057       C  0.97782158  0.75856121  0.20340444    -0.06000
C1058       C  0.96234015  0.75093043  0.22658771    -0.05900
C1059       C  0.97686502  0.75027469  0.25147341    -0.24100
C1060       C  0.00704345  0.75755635  0.25353730     0.18100
C1061       C  0.02283344  0.76426287  0.23002900     0.15400
C1062       C  0.00815989  0.76465902  0.20523083    -0.19100
C1063       C  0.05272386  0.77207253  0.23179050    -0.20900
C1064       C  0.06660383  0.77466875  0.25663864    -0.13500
C1065       C  0.05106373  0.76925375  0.28035387     0.03200
C1066       C  0.02137432  0.75980729  0.27864146    -0.25600
H1067       H  0.93873140  0.74706267  0.22564258     0.08300
H1068       H  0.96424509  0.74526443  0.26920348     0.11900
H1069       H  0.01996838  0.77135358  0.18745630     0.11800
H1070       H  0.06513976  0.77722540  0.21396719     0.11500
H1071       H  0.08942762  0.78191287  0.25734556     0.12100
H1072       H  0.00901182  0.75597539  0.29676894     0.14000
C1073       C  0.19300891  0.84028474  0.20261268    -0.06000
C1074       C  0.18143362  0.81159307  0.20289455    -0.05900
C1075       C  0.17566259  0.79764816  0.22728927    -0.24100
C1076       C  0.18144796  0.81233407  0.25154566     0.18100
C1077       C  0.19534899  0.84029711  0.25116454     0.15400
C1078       C  0.20101057  0.85398859  0.22671260    -0.19100
C1079       C  0.20087188  0.85533090  0.27517083    -0.20900
C1080       C  0.18999838  0.84419755  0.29912678    -0.13500
C1081       C  0.17406310  0.81764884  0.29947604     0.03200
C1082       C  0.17111276  0.80099689  0.27589767    -0.25600
H1083       H  0.17496981  0.80088110  0.18440200     0.08300
H1084       H  0.16512597  0.77616292  0.22717547     0.11900
H1085       H  0.20966149  0.87627299  0.22640347     0.11800
H1086       H  0.21159448  0.87673847  0.27516012     0.11500
H1087       H  0.19175798  0.85757514  0.31703018     0.12100
H1088       H  0.15801231  0.78093258  0.27603913     0.14000
C1089       C  0.90321357  0.86337701  0.38194160    -0.06000
C1090       C  0.90654932  0.83541631  0.39375786    -0.05900
C1091       C  0.93424179  0.82204873  0.39536392    -0.24100
C1092       C  0.95904831  0.83624197  0.38485768     0.18100
C1093       C  0.95620373  0.86519404  0.37458602     0.15400
C1094       C  0.92841177  0.87878296  0.37363406    -0.19100
C1095       C  0.98080885  0.87930114  0.36369055    -0.20900
C1096       C  0.00736949  0.86416712  0.36122113    -0.13500
C1097       C  0.00998098  0.83479023  0.36991743     0.03200
C1098       C  0.98613666  0.82133156  0.38285849    -0.25600
H1099       H  0.88745779  0.82316247  0.40054007     0.08300
H1100       H  0.93595636  0.79999766  0.40351341     0.11900
H1101       H  0.92611003  0.90027422  0.36441148     0.11800
H1102       H  0.97915835  0.90153610  0.35594495     0.11500
H1103       H  0.02572406  0.87520329  0.35166220     0.12100
H1104       H  0.98802659  0.79872775  0.38965995     0.14000
C1105       C  0.12921642  0.88954384  0.37856872    -0.06000
C1106       C  0.10784386  0.91176539  0.37539749    -0.05900
C1107       C  0.11614641  0.94137157  0.37449660    -0.24100
C1108       C  0.14596886  0.94925244  0.37670248     0.18100
C1109       C  0.16735755  0.92732885  0.38211590     0.15400
C1110       C  0.15878910  0.89758851  0.38330360    -0.19100
C1111       C  0.19718673  0.93535554  0.38455866    -0.20900
C1112       C  0.20589492  0.96454057  0.38029452    -0.13500
C1113       C  0.18494673  0.98598381  0.37326891     0.03200
C1114       C  0.15492047  0.97840942  0.37217954    -0.25600
H1115       H  0.08483956  0.90616767  0.37200503     0.08300
H1116       H  0.09942653  0.95793886  0.37074348     0.11900
H1117       H  0.17545382  0.88067313  0.38579473     0.11800
H1118       H  0.21387436  0.91890499  0.38880821     0.11500
H1119       H  0.22917819  0.97006408  0.38115890     0.12100
H1120       H  0.13868681  0.99501833  0.36696845     0.14000
C1121       C  0.99328874  0.82841771  0.61019494    -0.06000
C1122       C  0.97123669  0.81037976  0.59877264    -0.05900
C1123       C  0.94192283  0.81997793  0.59740646    -0.24100
C1124       C  0.93407027  0.84747485  0.60804375     0.18100
C1125       C  0.95634335  0.86624076  0.61851397     0.15400
C1126       C  0.98582472  0.85690366  0.61888857    -0.19100
C1127       C  0.94856248  0.89321407  0.63014553    -0.20900
C1128       C  0.91889361  0.90076949  0.63281442    -0.13500
C1129       C  0.89655023  0.88194027  0.62317080     0.03200
C1130       C  0.90425272  0.85578115  0.60990293    -0.25600
H1131       H  0.97642533  0.78832789  0.59193987     0.08300
H1132       H  0.92519453  0.80529009  0.58928726     0.11900
H1133       H  0.00253872  0.87094919  0.62796153     0.11800
H1134       H  0.96534237  0.90784363  0.63827376     0.11500
H1135       H  0.91331667  0.92111597  0.64296417     0.12100
H1136       H  0.88704301  0.84103905  0.60270987     0.14000
C1137       C  0.13047742  0.88158037  0.62146661    -0.06000
C1138       C  0.15968689  0.88230346  0.61196850    -0.05900
C1139       C  0.17517850  0.90898633  0.61019094    -0.24100
C1140       C  0.16168204  0.93549665  0.61769100     0.18100
C1141       C  0.13178024  0.93506124  0.62579949     0.15400
C1142       C  0.11644598  0.90821831  0.62769961    -0.19100
C1143       C  0.11791666  0.96138054  0.63283779    -0.20900
C1144       C  0.13378729  0.98769551  0.63313779    -0.13500
C1145       C  0.16405133  0.98840706  0.62661639     0.03200
C1146       C  0.17773119  0.96221767  0.61816613    -0.25600
H1147       H  0.17105723  0.86205490  0.60701430     0.08300
H1148       H  0.19795662  0.90876366  0.60368680     0.11900
H1149       H  0.09388236  0.90798791  0.63483961     0.11800
H1150       H  0.09494674  0.96153304  0.63880610     0.11500
H1151       H  0.12236686  0.00746221  0.63941346     0.12100
H1152       H  0.20091220  0.96241926  0.61288559     0.14000
C1153       C  0.09624837  0.77607270  0.44628275    -0.06000
C1154       C  0.06976469  0.76419209  0.45617944    -0.05900
C1155       C  0.06484821  0.76220173  0.48366223    -0.24100
C1156       C  0.08647106  0.77168463  0.50194801     0.18100
C1157       C  0.11344637  0.78318053  0.49235905     0.15400
C1158       C  0.11806820  0.78557407  0.46461712    -0.19100
C1159       C  0.13528381  0.79208499  0.51072050    -0.20900
C1160       C  0.13038987  0.78982186  0.53822995    -0.13500
C1161       C  0.10342678  0.77892941  0.54802670     0.03200
C1162       C  0.08153136  0.76988149  0.52963371    -0.25600
H1163       H  0.05254514  0.75680008  0.44260027     0.08300
H1164       H  0.04406873  0.75323571  0.49061397     0.11900
H1165       H  0.13869013  0.79459075  0.45732185     0.11800
H1166       H  0.15615988  0.80086280  0.50381176     0.11500
H1167       H  0.14759765  0.79707882  0.55188176     0.12100
H1168       H  0.06069268  0.76128447  0.53684411     0.14000
C1169       C  0.02151309  0.75690599  0.69652260    -0.06000
C1170       C  0.99071030  0.75362360  0.69602994    -0.05900
C1171       C  0.97502074  0.74992191  0.71982716    -0.24100
C1172       C  0.98988688  0.75024058  0.74454925     0.18100
C1173       C  0.02106914  0.75243616  0.74511229     0.15400
C1174       C  0.03668144  0.75527831  0.72103534    -0.19100
C1175       C  0.03589080  0.75395256  0.76979910    -0.20900
C1176       C  0.01990540  0.75518354  0.79361113    -0.13500
C1177       C  0.98894032  0.75405257  0.79321567     0.03200
C1178       C  0.97405574  0.75064031  0.76867572    -0.25600
H1179       H  0.97867449  0.75546095  0.67734347     0.08300
H1180       H  0.95113575  0.74844762  0.71898819     0.11900
H1181       H  0.06043709  0.75819415  0.72142966     0.11800
H1182       H  0.05974500  0.75592462  0.77061654     0.11500
H1183       H  0.03163636  0.75872744  0.81227662     0.12100
H1184       H  0.95011973  0.75059093  0.76828418     0.14000
C1185       C  0.13095154  0.80888768  0.71402591    -0.06000
C1186       C  0.11214117  0.80543297  0.73604337    -0.05900
C1187       C  0.12229860  0.81063524  0.76187441    -0.24100
C1188       C  0.15132845  0.82011119  0.76617013     0.18100
C1189       C  0.17108477  0.82214408  0.74444715     0.15400
C1190       C  0.16085712  0.81598281  0.71840972    -0.19100
C1191       C  0.19997432  0.83248266  0.74900011    -0.20900
C1192       C  0.20823562  0.84306055  0.77428030    -0.13500
C1193       C  0.18787708  0.84284521  0.79525002     0.03200
C1194       C  0.16002422  0.83008815  0.79145520    -0.25600
H1195       H  0.08907973  0.79985578  0.73323397     0.08300
H1196       H  0.10696186  0.80884767  0.77832374     0.11900
H1197       H  0.17548221  0.81878605  0.70155248     0.11800
H1198       H  0.21546211  0.83422884  0.73268186     0.11500
H1199       H  0.22961326  0.85351512  0.77690861     0.12100
H1200       H  0.14417810  0.83054926  0.80761810     0.14000
C1201       C  0.84843047  0.15642994  0.29737059    -0.06000
C1202       C  0.82723712  0.13410106  0.30036860    -0.05900
C1203       C  0.81117656  0.12403766  0.27823717    -0.24100
C1204       C  0.81616431  0.13633427  0.25297880     0.18100
C1205       C  0.83550740  0.16067436  0.25038692     0.15400
C1206       C  0.85147439  0.17061881  0.27269227    -0.19100
C1207       C  0.84034803  0.17306857  0.22515219    -0.20900
C1208       C  0.82864601  0.15951519  0.20233376    -0.13500
C1209       C  0.81201331  0.13350865  0.20460977     0.03200
C1210       C  0.80425065  0.12311816  0.23003585    -0.25600
H1211       H  0.82462446  0.12307464  0.31937846     0.08300
H1212       H  0.79618907  0.10555755  0.28057928     0.11900
H1213       H  0.86748968  0.18824642  0.27057468     0.11800
H1214       H  0.85481491  0.19197114  0.22290844     0.11500
H1215       H  0.83479630  0.16783629  0.18288745     0.12100
H1216       H  0.79110332  0.10318666  0.23185054     0.14000
C1217       C  0.02051509  0.22832791  0.20052086    -0.06000
C1218       C  0.03612168  0.24341690  0.22066140    -0.05900
C1219       C  0.02340399  0.24751699  0.24589926    -0.24100
C1220       C  0.99497080  0.23648560  0.25122768     0.18100
C1221       C  0.97841557  0.22344805  0.23020635     0.15400
C1222       C  0.99123886  0.21961505  0.20506094    -0.19100
C1223       C  0.95022737  0.21206683  0.23519962    -0.20900
C1224       C  0.93959403  0.21108496  0.26120931    -0.13500
C1225       C  0.95656602  0.22198281  0.28259556     0.03200
C1226       C  0.98375034  0.23591059  0.27746540    -0.25600
H1227       H  0.05884056  0.25003761  0.21751590     0.08300
H1228       H  0.03642200  0.25773204  0.26163263     0.11900
H1229       H  0.97919948  0.20788472  0.18951065     0.11800
H1230       H  0.93724522  0.20210898  0.21929481     0.11500
H1231       H  0.91890157  0.19984942  0.26493033     0.12100
H1232       H  0.99721333  0.24372713  0.29401546     0.14000
C1233       C  0.11267332  0.10903751  0.36512438    -0.06000
C1234       C  0.09067609  0.08708491  0.36388540    -0.05900
C1235       C  0.06074980  0.09448018  0.36544535    -0.24100
C1236       C  0.05213981  0.12402090  0.36814129     0.18100
C1237       C  0.07402561  0.14616253  0.37062653     0.15400
C1238       C  0.10411233  0.13853673  0.36929194    -0.19100
C1239       C  0.06541162  0.17569826  0.37333793    -0.20900
C1240       C  0.03551183  0.18339674  0.37232678    -0.13500
C1241       C  0.01353251  0.16173414  0.36867012     0.03200
C1242       C  0.02208280  0.13189799  0.36732075    -0.25600
H1243       H  0.09655507  0.06418335  0.36090478     0.08300
H1244       H  0.04430702  0.07715144  0.36372366     0.11900
H1245       H  0.12076631  0.15573442  0.37038909     0.11800
H1246       H  0.08185307  0.19298210  0.37542374     0.11500
H1247       H  0.02968057  0.20650469  0.37349684     0.12100
H1248       H  0.00546254  0.11487558  0.36457595     0.14000
C1249       C  0.89084293  0.08974865  0.38089326    -0.06000
C1250       C  0.91119301  0.06791724  0.37348622    -0.05900
C1251       C  0.90306025  0.03823071  0.37275735    -0.24100
C1252       C  0.87419151  0.02969721  0.37904789     0.18100
C1253       C  0.85387050  0.05106558  0.38811031     0.15400
C1254       C  0.86244602  0.08107624  0.38930570    -0.19100
C1255       C  0.82492081  0.04214801  0.39423020    -0.20900
C1256       C  0.81586627  0.01280937  0.39005939    -0.13500
C1257       C  0.83556081  0.99184928  0.37963027     0.03200
C1258       C  0.86498405  0.00039917  0.37499368    -0.25600
H1259       H  0.93309887  0.07405205  0.36686411     0.08300
H1260       H  0.91897182  0.02210582  0.36595943     0.11900
H1261       H  0.84640791  0.09776334  0.39461811     0.11800
H1262       H  0.80898075  0.05807273  0.40133259     0.11500
H1263       H  0.79310734  0.00684097  0.39387470     0.12100
H1264       H  0.88053447  0.98445426  0.36719556     0.14000
C1265       C  0.01526643  0.16716079  0.61137853    -0.06000
C1266       C  0.03739545  0.18512635  0.60038896    -0.05900
C1267       C  0.06638303  0.17465956  0.59787167    -0.24100
C1268       C  0.07389135  0.14635026  0.60698928     0.18100
C1269       C  0.05154930  0.12782441  0.61725125     0.15400
C1270       C  0.02241535  0.13805427  0.61874314    -0.19100
C1271       C  0.05896843  0.10002495  0.62745712    -0.20900
C1272       C  0.08847371  0.09132124  0.62893759    -0.13500
C1273       C  0.11096852  0.10978288  0.61940104     0.03200
C1274       C  0.10349746  0.13687622  0.60754286    -0.25600
H1275       H  0.03250885  0.20757585  0.59454863     0.08300
H1276       H  0.08319296  0.18919622  0.58993856     0.11900
H1277       H  0.00571270  0.12390486  0.62743340     0.11800
H1278       H  0.04209533  0.08558288  0.63543899     0.11500
H1279       H  0.09385433  0.07038302  0.63812813     0.12100
H1280       H  0.12085764  0.15139039  0.60054207     0.14000
C1281       C  0.88297974  0.10766314  0.61936047    -0.06000
C1282       C  0.85617193  0.10570151  0.60501652    -0.05900
C1283       C  0.84034916  0.07914895  0.60387044    -0.24100
C1284       C  0.85113499  0.05404090  0.61692346     0.18100
C1285       C  0.87877106  0.05562954  0.63028516     0.15400
C1286       C  0.89444023  0.08227499  0.63140376    -0.19100
C1287       C  0.89000105  0.03077465  0.64310107    -0.20900
C1288       C  0.87383343  0.00471788  0.64326142    -0.13500
C1289       C  0.84583633  0.00281462  0.63080028     0.03200
C1290       C  0.83462635  0.02761320  0.61740658    -0.25600
H1291       H  0.84673440  0.12504129  0.59565335     0.08300
H1292       H  0.81935679  0.07846864  0.59336517     0.11900
H1293       H  0.91508017  0.08347548  0.64248315     0.11800
H1294       H  0.91113384  0.03158019  0.65338927     0.11500
H1295       H  0.88315910  0.98612803  0.65389015     0.12100
H1296       H  0.81317608  0.02644973  0.60771034     0.14000
C1297       C  0.90630733  0.21566145  0.54748100    -0.06000
C1298       C  0.87847040  0.20893182  0.53632056    -0.05900
C1299       C  0.87475393  0.20633089  0.50867818    -0.24100
C1300       C  0.89879946  0.21035987  0.49156787     0.18100
C1301       C  0.92674365  0.21776809  0.50245461     0.15400
C1302       C  0.93031646  0.22042227  0.53027877    -0.19100
C1303       C  0.95075980  0.22192616  0.48533417    -0.20900
C1304       C  0.94727157  0.21835934  0.45775288    -0.13500
C1305       C  0.91969969  0.21050264  0.44666882     0.03200
C1306       C  0.89545259  0.20675186  0.46380901    -0.25600
H1307       H  0.85956614  0.20513659  0.54900501     0.08300
H1308       H  0.85312687  0.20075835  0.50070914     0.11900
H1309       H  0.95191353  0.22565619  0.53852382     0.11800
H1310       H  0.97233877  0.22770125  0.49329189     0.11500
H1311       H  0.96631763  0.22150148  0.44509637     0.12100
H1312       H  0.87399911  0.20089082  0.45559999     0.14000
C1313       C  0.97916852  0.23644435  0.70112425    -0.06000
C1314       C  0.95951792  0.24074549  0.72229778    -0.05900
C1315       C  0.96998572  0.24325809  0.74858753    -0.24100
C1316       C  0.00041903  0.24206142  0.75403635     0.18100
C1317       C  0.02046325  0.24016367  0.73251288     0.15400
C1318       C  0.00969025  0.23698740  0.70620730    -0.19100
C1319       C  0.05088141  0.23932093  0.73784343    -0.20900
C1320       C  0.06123263  0.23794654  0.76416609    -0.13500
C1321       C  0.04147530  0.23747953  0.78564492     0.03200
C1322       C  0.01106810  0.24055697  0.78054527    -0.25600
H1323       H  0.93592705  0.24030249  0.71861923     0.08300
H1324       H  0.95423882  0.24488623  0.76471410     0.11900
H1325       H  0.02490282  0.23325556  0.68992379     0.11800
H1326       H  0.06659069  0.23800380  0.72166096     0.11500
H1327       H  0.08465028  0.23482401  0.76771619     0.12100
H1328       H  0.99565817  0.23927694  0.79698259     0.14000
C1329       C  0.81768284  0.13270214  0.78633272    -0.06000
C1330       C  0.80231508  0.12421026  0.76313319    -0.05900
C1331       C  0.81054725  0.13530725  0.73830277    -0.24100
C1332       C  0.83507429  0.15407388  0.73634553     0.18100
C1333       C  0.84976445  0.16369730  0.75987806     0.15400
C1334       C  0.84030318  0.15369145  0.78481952    -0.19100
C1335       C  0.87527528  0.18101210  0.75798478    -0.20900
C1336       C  0.88725770  0.18706119  0.73305912    -0.13500
C1337       C  0.87335770  0.17689222  0.70961662     0.03200
C1338       C  0.84655753  0.16145232  0.71128865    -0.25600
H1339       H  0.78487954  0.10789990  0.76410663     0.08300
H1340       H  0.79904061  0.12766453  0.72054462     0.11900
H1341       H  0.85257902  0.15969419  0.80270938     0.11800
H1342       H  0.88687577  0.18843843  0.77577274     0.11500
H1343       H  0.90796233  0.19895558  0.73214861     0.12100
H1344       H  0.83597151  0.15323542  0.69325754     0.14000
C1345       C  0.37311915  0.20536463  0.62478964    -0.06000
C1346       C  0.37621763  0.18599016  0.64648027    -0.05900
C1347       C  0.35737697  0.16144409  0.64900681    -0.24100
C1348       C  0.33532307  0.15572464  0.62972985     0.18100
C1349       C  0.33336090  0.17424625  0.60708716     0.15400
C1350       C  0.35210690  0.19883163  0.60484300    -0.19100
C1351       C  0.31165151  0.16883810  0.58763520    -0.20900
C1352       C  0.29092895  0.14642210  0.59125397    -0.13500
C1353       C  0.29155565  0.12873210  0.61420044     0.03200
C1354       C  0.31427403  0.13291336  0.63320368    -0.25600
H1355       H  0.39212463  0.19070866  0.66217519     0.08300
H1356       H  0.35941986  0.14751866  0.66646305     0.11900
H1357       H  0.34962234  0.21359723  0.58797148     0.11800
H1358       H  0.30991226  0.18274918  0.57013273     0.11500
H1359       H  0.27333589  0.14377075  0.57664516     0.12100
H1360       H  0.31449632  0.11972909  0.65122429     0.14000
C1361       C  0.29866382  0.12896321  0.36884115    -0.06000
C1362       C  0.30205940  0.14403868  0.39317311    -0.05900
C1363       C  0.32653269  0.16197111  0.39791076    -0.24100
C1364       C  0.34775862  0.16586939  0.37806281     0.18100
C1365       C  0.34531594  0.15011985  0.35371019     0.15400
C1366       C  0.32093112  0.13109824  0.34942760    -0.19100
C1367       C  0.36618353  0.15539703  0.33355465    -0.20900
C1368       C  0.38758291  0.17769270  0.33676086    -0.13500
C1369       C  0.38902154  0.19416303  0.36050253     0.03200
C1370       C  0.36993658  0.18715881  0.38145464    -0.25600
H1371       H  0.28527987  0.14237938  0.40843736     0.08300
H1372       H  0.32811372  0.17389837  0.41664266     0.11900
H1373       H  0.31828136  0.11965035  0.33054108     0.11800
H1374       H  0.36471395  0.14371957  0.31469911     0.11500
H1375       H  0.40158378  0.18343757  0.32010067     0.12100
H1376       H  0.37046838  0.20047997  0.39948449     0.14000
C1377       C  0.41018834  0.28851421  0.54528476    -0.06000
C1378       C  0.38586160  0.30072110  0.53165193    -0.05900
C1379       C  0.38395942  0.29959003  0.50383399    -0.24100
C1380       C  0.40648712  0.28648545  0.48895100     0.18100
C1381       C  0.43148379  0.27481276  0.50226533     0.15400
C1382       C  0.43309599  0.27568968  0.53036618    -0.19100
C1383       C  0.45432307  0.26237556  0.48719531    -0.20900
C1384       C  0.45231188  0.26135196  0.45929398    -0.13500
C1385       C  0.42723097  0.27232635  0.44591523     0.03200
C1386       C  0.40438708  0.28490675  0.46097539    -0.25600
H1387       H  0.36785165  0.31065215  0.54255759     0.08300
H1388       H  0.36472978  0.30882107  0.49396568     0.11900
H1389       H  0.45206839  0.26636203  0.54057759     0.11800
H1390       H  0.47376605  0.25348436  0.49697295     0.11500
H1391       H  0.47032170  0.25173107  0.44816289     0.12100
H1392       H  0.38516231  0.29391510  0.45090064     0.14000
C1393       C  0.12864264  0.70135576  0.63414501    -0.06000
C1394       C  0.12393938  0.68071966  0.61358328    -0.05900
C1395       C  0.14291920  0.65668074  0.61064999    -0.24100
C1396       C  0.16681023  0.65296401  0.62827386     0.18100
C1397       C  0.17028320  0.67242483  0.65021915     0.15400
C1398       C  0.15108183  0.69636441  0.65307632    -0.19100
C1399       C  0.19412421  0.66883377  0.66789746    -0.20900
C1400       C  0.21549622  0.64750044  0.66280709    -0.13500
C1401       C  0.21310083  0.62936521  0.64021630     0.03200
C1402       C  0.18832599  0.63139478  0.62342694    -0.25600
H1403       H  0.10678771  0.68420600  0.59875293     0.08300
H1404       H  0.13977482  0.64185968  0.59386313     0.11900
H1405       H  0.15470232  0.71210785  0.66911317     0.11800
H1406       H  0.19701165  0.68343608  0.68487815     0.11500
H1407       H  0.23471760  0.64610303  0.67576266     0.12100
H1408       H  0.18675226  0.61743672  0.60586380     0.14000
C1409       C  0.32848997  0.48845510  0.62215906    -0.06000
C1410       C  0.30990245  0.46698501  0.61064077    -0.05900
C1411       C  0.31928937  0.43769749  0.60842138    -0.24100
C1412       C  0.34748248  0.42949964  0.61751500     0.18100
C1413       C  0.36671464  0.45128645  0.62804227     0.15400
C1414       C  0.35711019  0.48050854  0.63031408    -0.19100
C1415       C  0.39495324  0.44336786  0.63694454    -0.20900
C1416       C  0.40371937  0.41393491  0.63645843    -0.13500
C1417       C  0.38438618  0.39176837  0.62716639     0.03200
C1418       C  0.35644668  0.39983292  0.61711282    -0.25600
H1419       H  0.28769784  0.47259737  0.60432230     0.08300
H1420       H  0.30425650  0.42135269  0.60019616     0.11900
H1421       H  0.37169836  0.49695656  0.63907225     0.11800
H1422       H  0.41001099  0.45984115  0.64493206     0.11500
H1423       H  0.42536265  0.40843592  0.64430274     0.12100
H1424       H  0.34132887  0.38299622  0.60987382     0.14000
C1425       C  0.20846362  0.61688169  0.35987808    -0.06000
C1426       C  0.18717203  0.61351737  0.37993142    -0.05900
C1427       C  0.16449810  0.63432774  0.38281116    -0.24100
C1428       C  0.16277411  0.65874993  0.36562705     0.18100
C1429       C  0.18298408  0.66105756  0.34430833     0.15400
C1430       C  0.20545395  0.64008817  0.34151052    -0.19100
C1431       C  0.18162442  0.68532191  0.32707454    -0.20900
C1432       C  0.16153931  0.70797987  0.33174509    -0.13500
C1433       C  0.14226046  0.70663105  0.35346871     0.03200
C1434       C  0.14238859  0.68169212  0.37011150    -0.25600
H1435       H  0.18919880  0.59595032  0.39443655     0.08300
H1436       H  0.14914610  0.63203412  0.39918109     0.11900
H1437       H  0.22174524  0.64282761  0.32592021     0.11800
H1438       H  0.19693845  0.68738626  0.31064353     0.11500
H1439       H  0.16187330  0.72727866  0.31901563     0.12100
H1440       H  0.12781212  0.68091038  0.38717958     0.14000
C1441       C  0.33838026  0.47984094  0.37710137    -0.06000
C1442       C  0.36950047  0.48024603  0.37811455    -0.05900
C1443       C  0.38561920  0.45414280  0.37885858    -0.24100
C1444       C  0.37102430  0.42695638  0.37884339     0.18100
C1445       C  0.33977819  0.42608988  0.37990590     0.15400
C1446       C  0.32356243  0.45260946  0.37903435    -0.19100
C1447       C  0.32539704  0.39863858  0.38051846    -0.20900
C1448       C  0.34172273  0.37250195  0.37882989    -0.13500
C1449       C  0.37257466  0.37341914  0.37603802     0.03200
C1450       C  0.38716632  0.40068496  0.37660211    -0.25600
H1451       H  0.38158897  0.50085806  0.37703026     0.08300
H1452       H  0.40952925  0.45523221  0.37846611     0.11900
H1453       H  0.29963655  0.45193314  0.37829983     0.11800
H1454       H  0.30152604  0.39739149  0.38148349     0.11500
H1455       H  0.33011369  0.35158131  0.37822699     0.12100
H1456       H  0.41098882  0.40143003  0.37451634     0.14000
C1457       C  0.27925502  0.57800076  0.54654340    -0.06000
C1458       C  0.26043100  0.55565927  0.53671807    -0.05900
C1459       C  0.25818785  0.55003772  0.50931267    -0.24100
C1460       C  0.27450361  0.56684474  0.49114786     0.18100
C1461       C  0.29348952  0.58936871  0.50083634     0.15400
C1462       C  0.29590790  0.59463802  0.52838707    -0.19100
C1463       C  0.30945641  0.60658527  0.48278398    -0.20900
C1464       C  0.30603008  0.60212680  0.45539247    -0.13500
C1465       C  0.28703670  0.58002258  0.44549657     0.03200
C1466       C  0.27175852  0.56195120  0.46347718    -0.25600
H1467       H  0.24746836  0.54236683  0.55025675     0.08300
H1468       H  0.24349535  0.53272359  0.50232567     0.11900
H1469       H  0.31051924  0.61191211  0.53563641     0.11800
H1470       H  0.32420960  0.62382903  0.48982135     0.11500
H1471       H  0.31833541  0.61602262  0.44182373     0.12100
H1472       H  0.25706659  0.54489679  0.45594159     0.14000
C1473       C  0.71428525  0.86548608  0.62933287    -0.06000
C1474       C  0.68981746  0.87336069  0.61350451    -0.05900
C1475       C  0.66479873  0.85494900  0.61215225    -0.24100
C1476       C  0.66387003  0.82840824  0.62663243     0.18100
C1477       C  0.68788205  0.82126223  0.64361901     0.15400
C1478       C  0.71264691  0.83981427  0.64494990    -0.19100
C1479       C  0.68753043  0.79486748  0.65803491    -0.20900
C1480       C  0.66451207  0.77478803  0.65445599    -0.13500
C1481       C  0.64112178  0.78083260  0.63679097     0.03200
C1482       C  0.64028781  0.80813955  0.62348397    -0.25600
H1483       H  0.69056813  0.89301247  0.60128505     0.08300
H1484       H  0.64663295  0.86095951  0.59908672     0.11900
H1485       H  0.73125845  0.83361417  0.65747089     0.11800
H1486       H  0.70572004  0.78913992  0.67119990     0.11500
H1487       H  0.66554809  0.75379672  0.66472459     0.12100
H1488       H  0.62250782  0.81268145  0.60950198     0.14000
C1489       C  0.39486360  0.61378458  0.61532889    -0.06000
C1490       C  0.41782734  0.59428044  0.62207128    -0.05900
C1491       C  0.44721712  0.60362061  0.62210446    -0.24100
C1492       C  0.45442400  0.63268770  0.61531398     0.18100
C1493       C  0.43194802  0.65219370  0.60691821     0.15400
C1494       C  0.40221909  0.64259971  0.60690291    -0.19100
C1495       C  0.43960791  0.68127029  0.59993161    -0.20900
C1496       C  0.46893187  0.69123857  0.60258925    -0.13500
C1497       C  0.49098146  0.67234478  0.61244869     0.03200
C1498       C  0.48360400  0.64285026  0.61801050    -0.25600
H1499       H  0.41301326  0.57202262  0.62856124     0.08300
H1500       H  0.46425428  0.58834000  0.62838708     0.11900
H1501       H  0.38482632  0.65796121  0.60167729     0.11800
H1502       H  0.42276975  0.69657940  0.59330013     0.11500
H1503       H  0.47404413  0.71408807  0.59833771     0.12100
H1504       H  0.50049117  0.62802519  0.62549627     0.14000
C1505       C  0.72371647  0.84383792  0.35189662    -0.06000
C1506       C  0.73052130  0.81749271  0.33849873    -0.05900
C1507       C  0.70920032  0.79572173  0.33456329    -0.24100
C1508       C  0.68063502  0.79959105  0.34439539     0.18100
C1509       C  0.67289879  0.82647388  0.35689598     0.15400
C1510       C  0.69452866  0.84879278  0.36030329    -0.19100
C1511       C  0.64416316  0.82971426  0.36696895    -0.20900
C1512       C  0.62403010  0.80605723  0.36600815    -0.13500
C1513       C  0.63225055  0.77882126  0.35483189     0.03200
C1514       C  0.66029603  0.77626104  0.34320104    -0.25600
H1515       H  0.75286884  0.81330084  0.33187450     0.08300
H1516       H  0.71544144  0.77529994  0.32485971     0.11900
H1517       H  0.68924102  0.86890634  0.37095329     0.11800
H1518       H  0.63765109  0.85011075  0.37654105     0.11500
H1519       H  0.60258049  0.80862085  0.37514968     0.12100
H1520       H  0.66692130  0.75548211  0.33433084     0.14000
C1521       C  0.38876102  0.60563932  0.37659969    -0.06000
C1522       C  0.41183922  0.58514447  0.37517115    -0.05900
C1523       C  0.44115551  0.59442681  0.37706109    -0.24100
C1524       C  0.44780730  0.62449663  0.37960976     0.18100
C1525       C  0.42466674  0.64521951  0.38204091     0.15400
C1526       C  0.39516062  0.63554479  0.38109860    -0.19100
C1527       C  0.43145337  0.67535981  0.38369267    -0.20900
C1528       C  0.46073279  0.68495601  0.38157815    -0.13500
C1529       C  0.48376160  0.66455655  0.37813004     0.03200
C1530       C  0.47713746  0.63425580  0.37809820    -0.25600
H1531       H  0.40713286  0.56201279  0.37161268     0.08300
H1532       H  0.45860972  0.57826504  0.37518536     0.11900
H1533       H  0.37731764  0.65143583  0.38171216     0.11800
H1534       H  0.41403791  0.69157336  0.38548955     0.11500
H1535       H  0.46519268  0.70843287  0.38156698     0.12100
H1536       H  0.49461729  0.61826058  0.37533299     0.14000
C1537       C  0.58333875  0.71840335  0.44518303    -0.06000
C1538       C  0.56063866  0.73434219  0.45760713    -0.05900
C1539       C  0.55958878  0.73662502  0.48538538    -0.24100
C1540       C  0.58097672  0.72262931  0.50119325     0.18100
C1541       C  0.60395744  0.70665666  0.48883620     0.15400
C1542       C  0.60515804  0.70490182  0.46095475    -0.19100
C1543       C  0.62505176  0.69219987  0.50456865    -0.20900
C1544       C  0.62311436  0.69308690  0.53231511    -0.13500
C1545       C  0.60023342  0.70870362  0.54483546     0.03200
C1546       C  0.57943969  0.72382101  0.52912622    -0.25600
H1547       H  0.54362042  0.74500998  0.44582504     0.08300
H1548       H  0.54181783  0.74894805  0.49449953     0.11900
H1549       H  0.62261757  0.69234141  0.45157793     0.11800
H1550       H  0.64281142  0.67988150  0.49542446     0.11500
H1551       H  0.63956539  0.68145338  0.54400053     0.12100
H1552       H  0.56168129  0.73586615  0.53858529     0.14000
C1553       C  0.86985230  0.28413676  0.64163680    -0.06000
C1554       C  0.85044713  0.28289031  0.66342659    -0.05900
C1555       C  0.82740447  0.30293164  0.66589621    -0.24100
C1556       C  0.82330194  0.32484549  0.64667246     0.18100
C1557       C  0.84386903  0.32790499  0.62567540     0.15400
C1558       C  0.86724088  0.30747849  0.62328751    -0.19100
C1559       C  0.83967732  0.35042475  0.60680204    -0.20900
C1560       C  0.81481236  0.36878271  0.60815280    -0.13500
C1561       C  0.79354604  0.36456291  0.62809014     0.03200
C1562       C  0.79822936  0.34290196  0.64756078    -0.25600
H1563       H  0.85214427  0.26523629  0.67790317     0.08300
H1564       H  0.81208209  0.30052793  0.68228459     0.11900
H1565       H  0.88190251  0.30848551  0.60629365     0.11800
H1566       H  0.85515535  0.35331398  0.59061054     0.11500
H1567       H  0.81142742  0.38530149  0.59285487     0.12100
H1568       H  0.78190433  0.33963598  0.66304169     0.14000
C1569       C  0.66856216  0.50416219  0.62004346    -0.06000
C1570       C  0.68657798  0.52589160  0.60847115    -0.05900
C1571       C  0.67623117  0.55462018  0.60500190    -0.24100
C1572       C  0.64775913  0.56226564  0.61330679     0.18100
C1573       C  0.62894613  0.54035928  0.62389922     0.15400
C1574       C  0.63935814  0.51137097  0.62696384    -0.19100
C1575       C  0.60052511  0.54814746  0.63234642    -0.20900
C1576       C  0.59145388  0.57760970  0.63170527    -0.13500
C1577       C  0.61060433  0.59979093  0.62252393     0.03200
C1578       C  0.63837825  0.59171990  0.61243885    -0.25600
H1579       H  0.70902598  0.52086715  0.60270296     0.08300
H1580       H  0.69087439  0.57109595  0.59666253     0.11900
H1581       H  0.62521471  0.49484270  0.63591654     0.11800
H1582       H  0.58572809  0.53163928  0.64040561     0.11500
H1583       H  0.56996108  0.58318843  0.63959400     0.12100
H1584       H  0.65335496  0.60855697  0.60519608     0.14000
C1585       C  0.50656646  0.33638608  0.62755367    -0.06000
C1586       C  0.50980518  0.36320931  0.64152790    -0.05900
C1587       C  0.53616844  0.37898272  0.64100616    -0.24100
C1588       C  0.56014103  0.36839519  0.62649521     0.18100
C1589       C  0.55716139  0.34215875  0.61134906     0.15400
C1590       C  0.53018333  0.32627592  0.61179760    -0.19100
C1591       C  0.58161386  0.33192899  0.59690351    -0.20900
C1592       C  0.60887777  0.34677457  0.59848451    -0.13500
C1593       C  0.61218395  0.37210543  0.61454365     0.03200
C1594       C  0.58736689  0.38315713  0.62785962    -0.25600
H1595       H  0.49194812  0.37186994  0.65348785     0.08300
H1596       H  0.53802081  0.39915309  0.65256119     0.11900
H1597       H  0.52803275  0.30567184  0.60094041     0.11800
H1598       H  0.57993138  0.31195085  0.58507874     0.11500
H1599       H  0.62771098  0.33763240  0.58817219     0.12100
H1600       H  0.58953186  0.40268615  0.64027569     0.14000
C1601       C  0.79402242  0.35994483  0.35742284    -0.06000
C1602       C  0.81922672  0.36640344  0.37301956    -0.05900
C1603       C  0.84224629  0.34576788  0.37554417    -0.24100
C1604       C  0.84039438  0.31819536  0.36267609     0.18100
C1605       C  0.81566347  0.31218821  0.34612024     0.15400
C1606       C  0.79300210  0.33304271  0.34342446    -0.19100
C1607       C  0.81317443  0.28482040  0.33336775    -0.20900
C1608       C  0.83412405  0.26295258  0.33792452    -0.13500
C1609       C  0.85835055  0.26792368  0.35506337     0.03200
C1610       C  0.86196879  0.29605293  0.36680798    -0.25600
H1611       H  0.82055906  0.38683713  0.38419669     0.08300
H1612       H  0.86097683  0.35096715  0.38830590     0.11900
H1613       H  0.77379104  0.32765993  0.33128801     0.11800
H1614       H  0.79445112  0.27994813  0.32047871     0.11500
H1615       H  0.83104946  0.24171618  0.32831930     0.12100
H1616       H  0.88054521  0.30015426  0.38008284     0.14000
C1617       C  0.61329112  0.59999584  0.38100617    -0.06000
C1618       C  0.59417491  0.57573017  0.37839231    -0.05900
C1619       C  0.60501558  0.54695540  0.37954120    -0.24100
C1620       C  0.63538170  0.54181523  0.38251751     0.18100
C1621       C  0.65489445  0.56591629  0.38600373     0.15400
C1622       C  0.64362060  0.59496043  0.38577547    -0.19100
C1623       C  0.68540433  0.56048509  0.38806795    -0.20900
C1624       C  0.69647860  0.53169866  0.38537835    -0.13500
C1625       C  0.67723063  0.50770117  0.38100840     0.03200
C1626       C  0.64658118  0.51303209  0.38050582    -0.25600
H1627       H  0.57085944  0.57909771  0.37449941     0.08300
H1628       H  0.58976475  0.52871285  0.37680836     0.11900
H1629       H  0.65864419  0.61357059  0.38722710     0.11800
H1630       H  0.70079573  0.57862006  0.39071246     0.11500
H1631       H  0.72015237  0.52836637  0.38580658     0.12100
H1632       H  0.63134232  0.49490522  0.37707457     0.14000
C1633       C  0.61736590  0.37364524  0.38225005    -0.06000
C1634       C  0.61689329  0.34448608  0.39182728    -0.05900
C1635       C  0.59031631  0.32878275  0.39347147    -0.24100
C1636       C  0.56364678  0.34205441  0.38584129     0.18100
C1637       C  0.56363483  0.37214583  0.37840589     0.15400
C1638       C  0.59046113  0.38770926  0.37653238    -0.19100
C1639       C  0.53695921  0.38572218  0.37149016    -0.20900
C1640       C  0.51094248  0.36921025  0.36996632    -0.13500
C1641       C  0.51101241  0.33867067  0.37508745     0.03200
C1642       C  0.53733212  0.32543540  0.38409420    -0.25600
H1643       H  0.63731440  0.33311330  0.39638474     0.08300
H1644       H  0.59080782  0.30588209  0.39958721     0.11900
H1645       H  0.59053027  0.41025353  0.36935673     0.11800
H1646       H  0.53640072  0.40886830  0.36617878     0.11500
H1647       H  0.49098977  0.38019976  0.36336090     0.12100
H1648       H  0.53768135  0.30203725  0.38847230     0.14000
C1649       C  0.72766886  0.40052544  0.44522446    -0.06000
C1650       C  0.72089746  0.37292660  0.45650059    -0.05900
C1651       C  0.71868779  0.36966422  0.48405315    -0.24100
C1652       C  0.72320932  0.39393510  0.50086596     0.18100
C1653       C  0.73053219  0.42167779  0.48980510     0.15400
C1654       C  0.73275915  0.42480458  0.46205855    -0.19100
C1655       C  0.73507322  0.44592854  0.50667190    -0.20900
C1656       C  0.73203824  0.44281374  0.53420107    -0.13500
C1657       C  0.72445677  0.41537919  0.54536390     0.03200
C1658       C  0.72024581  0.39094963  0.52853374    -0.25600
H1659       H  0.71671724  0.35383699  0.44398509     0.08300
H1660       H  0.71309166  0.34824816  0.49217431     0.11900
H1661       H  0.73794354  0.44617573  0.45360302     0.11800
H1662       H  0.74078758  0.46732479  0.49858068     0.11500
H1663       H  0.73562820  0.46198339  0.54676141     0.12100
H1664       H  0.71450992  0.36967477  0.53690257     0.14000
C1665       C  0.21562896  0.36535144  0.85206338    -0.06000
C1666       C  0.21408638  0.34917454  0.82814514    -0.05900
C1667       C  0.19297264  0.32701538  0.82452359    -0.24100
C1668       C  0.17309527  0.32028402  0.84493841     0.18100
C1669       C  0.17280097  0.33780521  0.86835770     0.15400
C1670       C  0.19407019  0.36048950  0.87175595    -0.19100
C1671       C  0.15255270  0.33089985  0.88860245    -0.20900
C1672       C  0.13414560  0.30598497  0.88630942    -0.13500
C1673       C  0.13591833  0.28736426  0.86391379     0.03200
C1674       C  0.15486674  0.29518092  0.84296649    -0.25600
H1675       H  0.23065337  0.35237630  0.81288989     0.08300
H1676       H  0.19332183  0.31401675  0.80634807     0.11900
H1677       H  0.19545881  0.37243999  0.89049157     0.11800
H1678       H  0.15177238  0.34406384  0.90665868     0.11500
H1679       H  0.11979674  0.30028437  0.90273865     0.12100
H1680       H  0.15629686  0.28096537  0.82558005     0.14000
C1681       C  0.28190458  0.48232233  0.79920273    -0.06000
C1682       C  0.29698142  0.50933535  0.80139420    -0.05900
C1683       C  0.29634526  0.52963218  0.78056822    -0.24100
C1684       C  0.28115979  0.52289805  0.75689316     0.18100
C1685       C  0.26436907  0.49655471  0.75507487     0.15400
C1686       C  0.26447590  0.47648772  0.77652487    -0.19100
C1687       C  0.24957488  0.48983436  0.73112967    -0.20900
C1688       C  0.25328263  0.50774803  0.70866752    -0.13500
C1689       C  0.27168903  0.53278697  0.70981276     0.03200
C1690       C  0.28436351  0.54099093  0.73441745    -0.25600
H1691       H  0.31050471  0.51408311  0.81883712     0.08300
H1692       H  0.30914322  0.54978023  0.78239151     0.11900
H1693       H  0.25315657  0.45547232  0.77468599     0.11800
H1694       H  0.23640625  0.46992951  0.72935468     0.11500
H1695       H  0.24306120  0.50103822  0.69000212     0.12100
H1696       H  0.29836798  0.56039592  0.73566765     0.14000
C1697       C  0.31562864  0.35701058  0.78435162    -0.06000
C1698       C  0.30476052  0.37415758  0.76310159    -0.05900
C1699       C  0.30707524  0.36444046  0.73684417    -0.24100
C1700       C  0.32066458  0.33750137  0.73130922     0.18100
C1701       C  0.32953297  0.31888545  0.75257127     0.15400
C1702       C  0.32648943  0.32859637  0.77916925    -0.19100
C1703       C  0.34377025  0.29220595  0.74671826    -0.20900
C1704       C  0.35186271  0.28566845  0.72042789    -0.13500
C1705       C  0.34523778  0.30536830  0.69969096     0.03200
C1706       C  0.32819790  0.33036790  0.70499740    -0.25600
H1707       H  0.29576882  0.39591699  0.76675055     0.08300
H1708       H  0.29991905  0.37883146  0.72082339     0.11900
H1709       H  0.33492414  0.31530847  0.79547387     0.11800
H1710       H  0.35072496  0.27759405  0.76263248     0.11500
H1711       H  0.36574150  0.26669459  0.71667612     0.12100
H1712       H  0.32385192  0.34598850  0.68907407     0.14000
C1713       C  0.21172678  0.35287372  0.13673803    -0.06000
C1714       C  0.18673441  0.36172881  0.12199612    -0.05900
C1715       C  0.16180167  0.34333391  0.12006435    -0.24100
C1716       C  0.16152114  0.31572060  0.13273086     0.18100
C1717       C  0.18601016  0.30751973  0.14875098     0.15400
C1718       C  0.21063498  0.32617964  0.15086734    -0.19100
C1719       C  0.18628733  0.28003733  0.16131078    -0.20900
C1720       C  0.16338699  0.26008131  0.15683915    -0.13500
C1721       C  0.13948543  0.26719311  0.13994936     0.03200
C1722       C  0.13805467  0.29554796  0.12866155    -0.25600
H1723       H  0.18703429  0.38216118  0.11085193     0.08300
H1724       H  0.14327043  0.35017340  0.10778336     0.11900
H1725       H  0.22966704  0.31912420  0.16244721     0.11800
H1726       H  0.20478436  0.27349828  0.17379195     0.11500
H1727       H  0.16479551  0.23853064  0.16607327     0.12100
H1728       H  0.11978544  0.30118397  0.11555971     0.14000
C1729       C  0.28161478  0.38687036  0.04678505    -0.06000
C1730       C  0.28598439  0.35910019  0.03476401    -0.05900
C1731       C  0.28790943  0.35631093  0.00700062    -0.24100
C1732       C  0.28555234  0.38124031  0.99065300     0.18100
C1733       C  0.28075328  0.40914257  0.00257185     0.15400
C1734       C  0.27872083  0.41176906  0.03041869    -0.19100
C1735       C  0.27843973  0.43414886  0.98649176    -0.20900
C1736       C  0.28090307  0.43168550  0.95889846    -0.13500
C1737       C  0.28573093  0.40413529  0.94657718     0.03200
C1738       C  0.28806541  0.37886378  0.96267966    -0.25600
H1739       H  0.28840211  0.33947817  0.04685880     0.08300
H1740       H  0.29155544  0.33470917  0.99835723     0.11900
H1741       H  0.27546546  0.43331679  0.03933977     0.11800
H1742       H  0.27482197  0.45570358  0.99525739     0.11500
H1743       H  0.27906903  0.45164665  0.94718118    -0.03900
H1744       H  0.29178002  0.35751814  0.95353365     0.14000
C1745       C  0.26253378  0.50667361  0.29241767    -0.06000
C1746       C  0.24065011  0.51697802  0.27472807    -0.05900
C1747       C  0.23749861  0.50436593  0.24903847    -0.24100
C1748       C  0.25655009  0.48166088  0.24057394     0.18100
C1749       C  0.27731325  0.47035609  0.25912044     0.15400
C1750       C  0.27965449  0.48240094  0.28479143    -0.19100
C1751       C  0.29724708  0.44868891  0.25124263    -0.20900
C1752       C  0.29811335  0.43955131  0.22482706    -0.13500
C1753       C  0.27833425  0.45068485  0.20561883     0.03200
C1754       C  0.25672585  0.47123828  0.21374520    -0.25600
H1755       H  0.22741850  0.53593201  0.28004862     0.08300
H1756       H  0.22133338  0.51346417  0.23533553     0.11900
H1757       H  0.29665094  0.47434709  0.29829744     0.11800
H1758       H  0.31337629  0.43994792  0.26520328     0.11500
H1759       H  0.31530506  0.42429097  0.21919384     0.12100
H1760       H  0.24169378  0.48045071  0.19907862     0.14000
C1761       C  0.32146080  0.34655073  0.20650244    -0.06000
C1762       C  0.30656421  0.35881418  0.22832480    -0.05900
C1763       C  0.31106537  0.34778512  0.25400350    -0.24100
C1764       C  0.33096320  0.32462216  0.25816301     0.18100
C1765       C  0.34428366  0.31073597  0.23590532     0.15400
C1766       C  0.33888328  0.32141832  0.21008243    -0.19100
C1767       C  0.36492158  0.28825810  0.24002807    -0.20900
C1768       C  0.37460586  0.28181802  0.26582499    -0.13500
C1769       C  0.36308721  0.29703652  0.28783995     0.03200
C1770       C  0.33994916  0.31707695  0.28413822    -0.25600
H1771       H  0.29206218  0.37748985  0.22555039     0.08300
H1772       H  0.30035304  0.35846376  0.27070345     0.11900
H1773       H  0.35025729  0.31189913  0.19314494     0.11800
H1774       H  0.37529018  0.27735127  0.22326708     0.11500
H1775       H  0.39274491  0.26653067  0.26849019     0.12100
H1776       H  0.33156036  0.32927805  0.30111421     0.14000
C1777       C  0.71248655  0.11690958  0.86360095    -0.06000
C1778       C  0.69257936  0.11456335  0.88489843    -0.05900
C1779       C  0.66813152  0.13351232  0.88652154    -0.24100
C1780       C  0.66315957  0.15498059  0.86677752     0.18100
C1781       C  0.68204132  0.15592409  0.84438788     0.15400
C1782       C  0.70640930  0.13695185  0.84295813    -0.19100
C1783       C  0.67748779  0.17714790  0.82456304    -0.20900
C1784       C  0.65599435  0.19874886  0.82783062    -0.13500
C1785       C  0.63834954  0.19943869  0.85077213     0.03200
C1786       C  0.64108169  0.17673644  0.86976583    -0.25600
H1787       H  0.69694540  0.09938170  0.90110338     0.08300
H1788       H  0.65390626  0.13224541  0.90378846     0.11900
H1789       H  0.72161329  0.13883731  0.82639434     0.11800
H1790       H  0.69163023  0.17804668  0.80721058     0.11500
H1791       H  0.65430695  0.21614884  0.81309587     0.12100
H1792       H  0.62790424  0.17744497  0.88774222     0.14000
C1793       C  0.66129185  0.31096763  0.79047053    -0.06000
C1794       C  0.68240945  0.33338631  0.79365469    -0.05900
C1795       C  0.69521442  0.34638105  0.77130234    -0.24100
C1796       C  0.68707940  0.33691099  0.74561804     0.18100
C1797       C  0.66807692  0.31232367  0.74243064     0.15400
C1798       C  0.65529173  0.29946292  0.76496857    -0.19100
C1799       C  0.66024032  0.30267886  0.71670958    -0.20900
C1800       C  0.66896465  0.31887808  0.69441960    -0.13500
C1801       C  0.68539882  0.34492403  0.69771291     0.03200
C1802       C  0.69565240  0.35303326  0.72318853    -0.25600
H1803       H  0.68696419  0.34264722  0.81322108     0.08300
H1804       H  0.70996270  0.36502848  0.77404574     0.11900
H1805       H  0.63889686  0.28214265  0.76257846     0.11800
H1806       H  0.64600172  0.28364950  0.71392774     0.11500
H1807       H  0.66105377  0.31226762  0.67483547     0.12100
H1808       H  0.70873341  0.37295014  0.72568484     0.14000
C1809       C  0.54068483  0.25738892  0.78210097    -0.06000
C1810       C  0.55709155  0.25954741  0.75853677    -0.05900
C1811       C  0.54304881  0.25782423  0.73364175    -0.24100
C1812       C  0.51222867  0.25488313  0.73203856     0.18100
C1813       C  0.49571319  0.25160473  0.75577338     0.15400
C1814       C  0.51017027  0.25233457  0.78067530    -0.19100
C1815       C  0.46481708  0.25015638  0.75432073    -0.20900
C1816       C  0.45033004  0.25412278  0.72989470    -0.13500
C1817       C  0.46648151  0.25858293  0.70640410     0.03200
C1818       C  0.49747212  0.25763936  0.70738273    -0.25600
H1819       H  0.58057796  0.26416429  0.75945898     0.08300
H1820       H  0.55605574  0.26060438  0.71573488     0.11900
H1821       H  0.49743505  0.25161314  0.79893128     0.11800
H1822       H  0.45181032  0.24775702  0.77227265     0.11500
H1823       H  0.42641688  0.25509851  0.72949813     0.12100
H1824       H  0.51000608  0.26186007  0.68940456     0.14000
C1825       C  0.39672046  0.36217826  0.87456855    -0.06000
C1826       C  0.39842705  0.33301825  0.88395315    -0.05900
C1827       C  0.42565392  0.31828698  0.88496292    -0.24100
C1828       C  0.45165779  0.33257748  0.87682876     0.18100
C1829       C  0.45021518  0.36247143  0.86893509     0.15400
C1830       C  0.42289170  0.37696075  0.86777198    -0.19100
C1831       C  0.47596743  0.37717653  0.86128772    -0.20900
C1832       C  0.50271992  0.36214207  0.86016780    -0.13500
C1833       C  0.50442852  0.33190652  0.86642867     0.03200
C1834       C  0.47880998  0.31736654  0.87545472    -0.25600
H1835       H  0.37852577  0.32113393  0.88922210     0.08300
H1836       H  0.42622438  0.29547250  0.89131864     0.11900
H1837       H  0.42185931  0.39953279  0.86071042     0.11800
H1838       H  0.47529446  0.40016150  0.85542938     0.11500
H1839       H  0.52195227  0.37411388  0.85330815     0.12100
H1840       H  0.47977061  0.29416839  0.88053747     0.14000
C1841       C  0.63703579  0.20283961  0.14115653    -0.06000
C1842       C  0.65699348  0.20355674  0.16277640    -0.05900
C1843       C  0.67733867  0.18094487  0.16680348    -0.24100
C1844       C  0.67852344  0.15705099  0.14911871     0.18100
C1845       C  0.65745530  0.15470820  0.12824679     0.15400
C1846       C  0.63648758  0.17761006  0.12448266    -0.19100
C1847       C  0.65913587  0.13043733  0.11068188    -0.20900
C1848       C  0.68255475  0.11008938  0.11269606    -0.13500
C1849       C  0.70467960  0.11367746  0.13228593     0.03200
C1850       C  0.70171175  0.13659779  0.15103919    -0.25600
H1851       H  0.65781060  0.22251891  0.17597002     0.08300
H1852       H  0.69316255  0.18291673  0.18304770     0.11900
H1853       H  0.62143741  0.17684920  0.10757677     0.11800
H1854       H  0.64317561  0.12797631  0.09461484     0.11500
H1855       H  0.68443692  0.09277578  0.09788201     0.12100
H1856       H  0.71861172  0.13957243  0.16627809     0.14000
C1857       C  0.50109195  0.33109396  0.10629503    -0.06000
C1858       C  0.49886038  0.36205792  0.10789598    -0.05900
C1859       C  0.47136722  0.37591082  0.10878388    -0.24100
C1860       C  0.44534417  0.35920234  0.10785873     0.18100
C1861       C  0.44706938  0.32828638  0.10435500     0.15400
C1862       C  0.47493235  0.31437833  0.10366788    -0.19100
C1863       C  0.42084866  0.31175209  0.10281985    -0.20900
C1864       C  0.39338951  0.32548035  0.10598963    -0.13500
C1865       C  0.39163332  0.35590255  0.11120199     0.03200
C1866       C  0.41772562  0.37275706  0.11150759    -0.25600
H1867       H  0.51846084  0.37565778  0.10987751     0.08300
H1868       H  0.47050013  0.39965787  0.11114037     0.11900
H1869       H  0.47616947  0.29054558  0.10246512     0.11800
H1870       H  0.42160286  0.28807480  0.09995810     0.11500
H1871       H  0.37358208  0.31202416  0.10579971     0.12100
H1872       H  0.41657037  0.39627055  0.11536409     0.14000
C1873       C  0.59051232  0.26682082  0.94221300    -0.06000
C1874       C  0.56241062  0.26239845  0.95343218    -0.05900
C1875       C  0.55895620  0.26028754  0.98102404    -0.24100
C1876       C  0.58352653  0.26257383  0.99801288     0.18100
C1877       C  0.61196911  0.26639008  0.98697579     0.15400
C1878       C  0.61530154  0.26848530  0.95918226    -0.19100
C1879       C  0.63655307  0.26854825  0.00396247    -0.20900
C1880       C  0.63292851  0.26783162  0.03159521    -0.13500
C1881       C  0.60464183  0.26495349  0.04285208     0.03200
C1882       C  0.58003363  0.26179758  0.02584656    -0.25600
H1883       H  0.54290323  0.26084017  0.94086657     0.08300
H1884       H  0.53700538  0.25722909  0.98907867     0.11900
H1885       H  0.63709976  0.27174213  0.95083405     0.11800
H1886       H  0.65853714  0.27134117  0.99590296     0.11500
H1887       H  0.65233466  0.27029936  0.04417404     0.12100
H1888       H  0.55812247  0.25954008  0.03421878     0.14000
C1889       C  0.67469646  0.35822566  0.28968214    -0.06000
C1890       C  0.65483840  0.33465349  0.29227712    -0.05900
C1891       C  0.64402995  0.32017672  0.26968200    -0.24100
C1892       C  0.65342501  0.32880422  0.24429567     0.18100
C1893       C  0.67487653  0.35137325  0.24164427     0.15400
C1894       C  0.68510791  0.36626235  0.26442695    -0.19100
C1895       C  0.68479017  0.35935258  0.21618897    -0.20900
C1896       C  0.67229760  0.34623354  0.19351192    -0.13500
C1897       C  0.64953737  0.32541304  0.19614831     0.03200
C1898       C  0.64072992  0.31616195  0.22149400    -0.25600
H1899       H  0.64662724  0.32837738  0.31173205     0.08300
H1900       H  0.62778244  0.30279052  0.27200930     0.11900
H1901       H  0.70066521  0.38437229  0.26255305     0.11800
H1902       H  0.70140006  0.37638541  0.21380783     0.11500
H1903       H  0.67906839  0.35365207  0.17392889     0.12100
H1904       H  0.62318791  0.29996247  0.22338507     0.14000
C1905       C  0.48173300  0.26339855  0.28578260    -0.06000
C1906       C  0.50334121  0.24133911  0.28375551    -0.05900
C1907       C  0.51837996  0.23685679  0.25957295    -0.24100
C1908       C  0.51180958  0.25421014  0.23703257     0.18100
C1909       C  0.48858883  0.27495945  0.23866489     0.15400
C1910       C  0.47382848  0.27934952  0.26284836    -0.19100
C1911       C  0.48142714  0.29224813  0.21649822    -0.20900
C1912       C  0.49849569  0.29075781  0.19355251    -0.13500
C1913       C  0.52300457  0.27186341  0.19207922     0.03200
C1914       C  0.52891333  0.25256631  0.21347786    -0.25600
H1915       H  0.50960244  0.22863160  0.30116507     0.08300
H1916       H  0.53583561  0.22059798  0.25878781     0.11900
H1917       H  0.45677097  0.29605069  0.26410346     0.11800
H1918       H  0.46347402  0.30798076  0.21733731     0.11500
H1919       H  0.49342687  0.30563152  0.17724165     0.12100
H1920       H  0.54787838  0.23808008  0.21259681     0.14000
C1921       C  0.79163066  0.62594301  0.85246768    -0.06000
C1922       C  0.79087865  0.64380203  0.82959711    -0.05900
C1923       C  0.81350055  0.66383617  0.82440103    -0.24100
C1924       C  0.83719591  0.66688590  0.84227741     0.18100
C1925       C  0.83933040  0.64789864  0.86459353     0.15400
C1926       C  0.81657533  0.62712242  0.86943624    -0.19100
C1927       C  0.86321422  0.65145724  0.88243008    -0.20900
C1928       C  0.88339440  0.67479644  0.87919852    -0.13500
C1929       C  0.88004841  0.69494837  0.85807809     0.03200
C1930       C  0.85758216  0.68999613  0.83909511    -0.25600
H1931       H  0.77196737  0.64309462  0.81621675     0.08300
H1932       H  0.81166391  0.67802309  0.80708953     0.11900
H1933       H  0.81720591  0.61360409  0.88724671     0.11800
H1934       H  0.86546076  0.63711448  0.89958915     0.11500
H1935       H  0.90042174  0.67821750  0.89418880     0.12100
H1936       H  0.85484341  0.70531444  0.82266797     0.14000
C1937       C  0.67754489  0.64765316  0.79525912    -0.06000
C1938       C  0.65364400  0.66702313  0.79788066    -0.05900
C1939       C  0.64129531  0.68029242  0.77526924    -0.24100
C1940       C  0.65291327  0.67438174  0.74991672     0.18100
C1941       C  0.67873226  0.65708045  0.74756502     0.15400
C1942       C  0.69086153  0.64381357  0.77030769    -0.19100
C1943       C  0.69061212  0.65144623  0.72227669    -0.20900
C1944       C  0.67582430  0.66104161  0.69936195    -0.13500
C1945       C  0.64898824  0.67609775  0.70157049     0.03200
C1946       C  0.63805138  0.68361543  0.72679658    -0.25600
H1947       H  0.64301346  0.66990020  0.81702555     0.08300
H1948       H  0.62169808  0.69373997  0.77742322     0.11900
H1949       H  0.70933218  0.62879054  0.76836914     0.11800
H1950       H  0.71048379  0.63839901  0.72018457     0.11500
H1951       H  0.68426660  0.65501782  0.67991382     0.12100
H1952       H  0.61722817  0.69525904  0.72833618     0.14000
C1953       C  0.73752463  0.53237090  0.78342732    -0.06000
C1954       C  0.73273770  0.55014038  0.76096517    -0.05900
C1955       C  0.73479022  0.53827647  0.73533795    -0.24100
C1956       C  0.74088186  0.50822771  0.73192180     0.18100
C1957       C  0.74756845  0.49054906  0.75443026     0.15400
C1958       C  0.74624593  0.50292772  0.78016317    -0.19100
C1959       C  0.75286575  0.46028746  0.75091835    -0.20900
C1960       C  0.74929695  0.44730935  0.72570894    -0.13500
C1961       C  0.74093442  0.46452910  0.70374013     0.03200
C1962       C  0.73783064  0.49508554  0.70669649    -0.25600
H1963       H  0.72562105  0.57278891  0.76334227     0.08300
H1964       H  0.72969363  0.55211649  0.71831992     0.11900
H1965       H  0.74929043  0.48910201  0.79759638     0.11800
H1966       H  0.75797867  0.44639117  0.76788982     0.11500
H1967       H  0.75119187  0.42359789  0.72368413     0.12100
H1968       H  0.73079239  0.50820820  0.68973333     0.14000
C1969       C  0.63682388  0.37846166  0.87466040    -0.06000
C1970       C  0.66604757  0.38083336  0.88409032    -0.05900
C1971       C  0.68035147  0.40835133  0.88481962    -0.24100
C1972       C  0.66550400  0.43390148  0.87634687     0.18100
C1973       C  0.63558327  0.43162522  0.86823069     0.15400
C1974       C  0.62157166  0.40406491  0.86735346    -0.19100
C1975       C  0.62030751  0.45678439  0.86010492    -0.20900
C1976       C  0.63464667  0.48391307  0.85914996    -0.13500
C1977       C  0.66476230  0.48663811  0.86604236     0.03200
C1978       C  0.68007170  0.46146783  0.87504705    -0.25600
H1979       H  0.67833731  0.36122251  0.88941442     0.08300
H1980       H  0.70322908  0.40950803  0.89122896     0.11900
H1981       H  0.59904147  0.40233954  0.85997649     0.11800
H1982       H  0.59734583  0.45540378  0.85394626     0.11500
H1983       H  0.62214116  0.50272593  0.85213828     0.12100
H1984       H  0.70322575  0.46318981  0.88048030     0.14000
C1985       C  0.87295266  0.69600492  0.13278220    -0.06000
C1986       C  0.87786535  0.67243917  0.11510456    -0.05900
C1987       C  0.85806713  0.64852971  0.11400133    -0.24100
C1988       C  0.83317288  0.64785248  0.13065218     0.18100
C1989       C  0.82942273  0.67063992  0.14966747     0.15400
C1990       C  0.84926393  0.69438315  0.15061415    -0.19100
C1991       C  0.80486545  0.67037213  0.16642846    -0.20900
C1992       C  0.78298962  0.64903329  0.16313095    -0.13500
C1993       C  0.78521177  0.62735671  0.14313931     0.03200
C1994       C  0.81104943  0.62600904  0.12764296    -0.25600
H1995       H  0.89592016  0.67338977  0.10105114     0.08300
H1996       H  0.86151734  0.63127065  0.09936960     0.11900
H1997       H  0.84541016  0.71247018  0.16436419     0.11800
H1998       H  0.80185149  0.68751410  0.18126879     0.11500
H1999       H  0.76345796  0.65034425  0.17546350     0.12100
H2000       H  0.81288523  0.60950637  0.11205877     0.14000
C2001       C  0.63687278  0.37858079  0.10090452    -0.06000
C2002       C  0.66761512  0.38012051  0.09754561    -0.05900
C2003       C  0.68201371  0.40750814  0.09670213    -0.24100
C2004       C  0.66579773  0.43372754  0.09901521     0.18100
C2005       C  0.63458508  0.43222026  0.09980593     0.15400
C2006       C  0.62035425  0.40471220  0.10081704    -0.19100
C2007       C  0.61817108  0.45820741  0.10152106    -0.20900
C2008       C  0.63247781  0.48521637  0.10488932    -0.13500
C2009       C  0.66352857  0.48686906  0.10681493     0.03200
C2010       C  0.68016557  0.46114795  0.10244231    -0.25600
H2011       H  0.68074117  0.36018349  0.09773308     0.08300
H2012       H  0.70590486  0.40812521  0.09573392     0.11900
H2013       H  0.59659380  0.40362827  0.10332347     0.11800
H2014       H  0.59424032  0.45751995  0.10162172     0.11500
H2015       H  0.61899078  0.50469297  0.10751242     0.12100
H2016       H  0.70406595  0.46210597  0.10352569     0.14000
C2017       C  0.72449998  0.58834204  0.04571165    -0.06000
C2018       C  0.72334860  0.61658916  0.03413331    -0.05900
C2019       C  0.72326303  0.62004253  0.00649237    -0.24100
C2020       C  0.72433042  0.59532600  0.98978004     0.18100
C2021       C  0.72609002  0.56681312  0.00108297     0.15400
C2022       C  0.72627097  0.56347662  0.02899018    -0.19100
C2023       C  0.72714374  0.54213350  0.98424372    -0.20900
C2024       C  0.72622851  0.54565773  0.95653961    -0.13500
C2025       C  0.72422863  0.57392780  0.94511274     0.03200
C2026       C  0.72336496  0.59870160  0.96195532    -0.25600
H2027       H  0.72201111  0.63618056  0.04646880     0.08300
H2028       H  0.72199105  0.64205786  0.99819452     0.11900
H2029       H  0.72707717  0.54158615  0.03761777     0.11800
H2030       H  0.72846822  0.52009848  0.99248453     0.11500
H2031       H  0.72684483  0.52614662  0.94404655     0.12100
H2032       H  0.72178830  0.62061488  0.95345571     0.14000
C2033       C  0.66667714  0.63611184  0.19854642    -0.06000
C2034       C  0.64379935  0.65663800  0.19561690    -0.05900
C2035       C  0.63128462  0.66965600  0.21808942    -0.24100
C2036       C  0.64173400  0.66233344  0.24362051     0.18100
C2037       C  0.66631987  0.64337860  0.24648325     0.15400
C2038       C  0.67867545  0.63042024  0.22383754    -0.19100
C2039       C  0.67701892  0.63639166  0.27201254    -0.20900
C2040       C  0.66230544  0.64661133  0.29457654    -0.13500
C2041       C  0.63667395  0.66366333  0.29175864     0.03200
C2042       C  0.62703441  0.67230944  0.26632322    -0.25600
H2043       H  0.63437747  0.66112635  0.17610250     0.08300
H2044       H  0.61264577  0.68435937  0.21558343     0.11900
H2045       H  0.69677496  0.61503019  0.22592847     0.11800
H2046       H  0.69596166  0.62207330  0.27450558     0.11500
H2047       H  0.66993521  0.63979788  0.31415600     0.12100
H2048       H  0.60738985  0.68577807  0.26421650     0.14000
C2049       C  0.72795363  0.52749881  0.20474754    -0.06000
C2050       C  0.71614286  0.54473959  0.22533274    -0.05900
C2051       C  0.71762684  0.53558371  0.25179054    -0.24100
C2052       C  0.73053106  0.50853102  0.25822323     0.18100
C2053       C  0.74381336  0.49132433  0.23797885     0.15400
C2054       C  0.74262373  0.50105785  0.21114183    -0.19100
C2055       C  0.75634858  0.46398877  0.24488830    -0.20900
C2056       C  0.75411424  0.45319889  0.27111029    -0.13500
C2057       C  0.73936484  0.46960567  0.29072622     0.03200
C2058       C  0.72849551  0.49762126  0.28430485    -0.25600
H2059       H  0.70439326  0.56481404  0.22070142     0.08300
H2060       H  0.70737680  0.54901658  0.26705000     0.11900
H2061       H  0.75125577  0.48734262  0.19527704     0.11800
H2062       H  0.76664946  0.45039221  0.22979544     0.11500
H2063       H  0.76215845  0.43128127  0.27562031     0.12100
H2064       H  0.71682127  0.51019436  0.29935104     0.14000
C2065       C  0.37919174  0.78768928  0.85893076    -0.06000
C2066       C  0.38616249  0.80986090  0.87759210    -0.05900
C2067       C  0.36802742  0.83482496  0.88005409    -0.24100
C2068       C  0.34268907  0.83792588  0.86388019     0.18100
C2069       C  0.33690103  0.81664693  0.84380872     0.15400
C2070       C  0.35523057  0.79194391  0.84137799    -0.19100
C2071       C  0.31174152  0.81930115  0.82756730    -0.20900
C2072       C  0.29139250  0.84169953  0.83225534    -0.13500
C2073       C  0.29597495  0.86206591  0.85296018     0.03200
C2074       C  0.32209635  0.86075033  0.86832041    -0.25600
H2075       H  0.40446680  0.80700296  0.89136728     0.08300
H2076       H  0.37303680  0.85097090  0.89541692     0.11900
H2077       H  0.34980395  0.77505337  0.82676015     0.11800
H2078       H  0.30707893  0.80322890  0.81204703     0.11500
H2079       H  0.27125854  0.84235801  0.82043465     0.12100
H2080       H  0.32546337  0.87626430  0.88456002     0.14000
C2081       C  0.48326805  0.72834787  0.79014649    -0.06000
C2082       C  0.51331167  0.72226927  0.79397197    -0.05900
C2083       C  0.53317243  0.72562086  0.77309264    -0.24100
C2084       C  0.52305403  0.73458621  0.74792608     0.18100
C2085       C  0.49314496  0.74278644  0.74431478     0.15400
C2086       C  0.47329765  0.73977119  0.76567137    -0.19100
C2087       C  0.48326679  0.75141162  0.71885701    -0.20900
C2088       C  0.50196762  0.74884407  0.69678365    -0.13500
C2089       C  0.53073151  0.73784787  0.70003705     0.03200
C2090       C  0.54171109  0.73268793  0.72586022    -0.25600
H2091       H  0.52110280  0.71329871  0.81277858     0.08300
H2092       H  0.55603787  0.71939381  0.77616893     0.11900
H2093       H  0.44997099  0.74413305  0.76272216     0.11800
H2094       H  0.46055983  0.75811379  0.71571812     0.11500
H2095       H  0.49313043  0.75295618  0.67699255     0.12100
H2096       H  0.56401903  0.72445224  0.72847917     0.14000
C2097       C  0.35222607  0.68285872  0.78616825    -0.06000
C2098       C  0.32500752  0.66817184  0.78822736    -0.05900
C2099       C  0.30941383  0.65989190  0.76518235    -0.24100
C2100       C  0.32092238  0.66626714  0.73988495     0.18100
C2101       C  0.34681001  0.68364149  0.73781673     0.15400
C2102       C  0.36214969  0.69201110  0.76100035    -0.19100
C2103       C  0.35851582  0.68991906  0.71260512    -0.20900
C2104       C  0.34655842  0.67648115  0.68987596    -0.13500
C2105       C  0.32250368  0.65717899  0.69209143     0.03200
C2106       C  0.30874707  0.65327002  0.71684170    -0.25600
H2107       H  0.31697542  0.66106342  0.80750073     0.08300
H2108       H  0.28943817  0.64688084  0.76712687     0.11900
H2109       H  0.38301249  0.70367058  0.75937314     0.11800
H2110       H  0.37822180  0.70334523  0.71069113     0.11500
H2111       H  0.35759555  0.67918366  0.67089980     0.12100
H2112       H  0.29050700  0.63783645  0.71850860     0.14000
C2113       C  0.50649963  0.64820678  0.86717675    -0.06000
C2114       C  0.50813951  0.61837783  0.85946300    -0.05900
C2115       C  0.53454574  0.60280688  0.86170892    -0.24100
C2116       C  0.55988610  0.61664227  0.87189876     0.18100
C2117       C  0.55819007  0.64598332  0.88140203     0.15400
C2118       C  0.53149028  0.66167415  0.87890014    -0.19100
C2119       C  0.58362936  0.65947303  0.89205100    -0.20900
C2120       C  0.61081832  0.64480649  0.89149797    -0.13500
C2121       C  0.61300074  0.61656156  0.88010082     0.03200
C2122       C  0.58721717  0.60216127  0.87130207    -0.25600
H2123       H  0.48924903  0.60728244  0.85059533     0.08300
H2124       H  0.53538067  0.58022964  0.85461542     0.11900
H2125       H  0.53047472  0.68453420  0.88519070     0.11800
H2126       H  0.58277336  0.68182398  0.89969106     0.11500
H2127       H  0.63047768  0.65638834  0.89820683     0.12100
H2128       H  0.58873433  0.58031287  0.86256197     0.14000
C2129       C  0.37388663  0.60683220  0.87180647    -0.06000
C2130       C  0.34380046  0.60511465  0.87827161    -0.05900
C2131       C  0.33022189  0.57773874  0.88232348    -0.24100
C2132       C  0.34669496  0.55165374  0.88052384     0.18100
C2133       C  0.37737719  0.55337164  0.87551993     0.15400
C2134       C  0.39070118  0.58091286  0.87080302    -0.19100
C2135       C  0.39401008  0.52742351  0.87438868    -0.20900
C2136       C  0.38014677  0.49996803  0.87639198    -0.13500
C2137       C  0.34929792  0.49782066  0.87934755     0.03200
C2138       C  0.33283536  0.52390041  0.88241781    -0.25600
H2139       H  0.33051322  0.62492875  0.87903582     0.08300
H2140       H  0.30673035  0.57693852  0.88627308     0.11900
H2141       H  0.41399119  0.58220576  0.86599224     0.11800
H2142       H  0.41760376  0.52831008  0.87095438     0.11500
H2143       H  0.39348006  0.48034862  0.87405611     0.12100
H2144       H  0.30906549  0.52268108  0.88468132     0.14000
C2145       C  0.29155164  0.85527071  0.13098637    -0.06000
C2146       C  0.32001166  0.86373049  0.12299941    -0.05900
C2147       C  0.34312046  0.84296723  0.12275437    -0.24100
C2148       C  0.33805247  0.81356657  0.13065226     0.18100
C2149       C  0.30976520  0.80563578  0.14003503     0.15400
C2150       C  0.28694320  0.82639553  0.14016711    -0.19100
C2151       C  0.30422271  0.77670577  0.14821666    -0.20900
C2152       C  0.32602506  0.75528492  0.14602382    -0.13500
C2153       C  0.35399695  0.76214468  0.13557297     0.03200
C2154       C  0.36018182  0.79169420  0.12852453    -0.25600
H2155       H  0.32400174  0.88586714  0.11577680     0.08300
H2156       H  0.36466144  0.84965725  0.11565171     0.11900
H2157       H  0.26508153  0.81976906  0.14662563     0.11800
H2158       H  0.28269203  0.77041158  0.15566829     0.11500
H2159       H  0.32057282  0.73296746  0.15192633     0.12100
H2160       H  0.38162218  0.79739925  0.12052623     0.14000
C2161       C  0.51233423  0.66472143  0.10676649    -0.06000
C2162       C  0.53439851  0.68635955  0.10398599    -0.05900
C2163       C  0.56394281  0.67818406  0.10058586    -0.24100
C2164       C  0.57183003  0.64827006  0.10025087     0.18100
C2165       C  0.54943753  0.62648216  0.10121172     0.15400
C2166       C  0.51990123  0.63486354  0.10393022    -0.19100
C2167       C  0.55705997  0.59658311  0.10168395    -0.20900
C2168       C  0.58660693  0.58837000  0.10366567    -0.13500
C2169       C  0.60895040  0.60984393  0.10431555     0.03200
C2170       C  0.60164815  0.63972232  0.10120597    -0.25600
H2171       H  0.52908271  0.70953313  0.10592660     0.08300
H2172       H  0.58075272  0.69520780  0.09973674     0.11900
H2173       H  0.50304278  0.61795731  0.10574539     0.11800
H2174       H  0.54014677  0.57964327  0.10235702     0.11500
H2175       H  0.59199936  0.56527119  0.10623175     0.12100
H2176       H  0.61889892  0.65633540  0.10226153     0.14000
C2177       C  0.39425607  0.58705248  0.10796743    -0.06000
C2178       C  0.41459431  0.56458705  0.11388376    -0.05900
C2179       C  0.40599346  0.53492647  0.11322069    -0.24100
C2180       C  0.37661388  0.52719789  0.10742623     0.18100
C2181       C  0.35631771  0.54948149  0.10014991     0.15400
C2182       C  0.36543323  0.57923018  0.09991535    -0.19100
C2183       C  0.32676853  0.54183029  0.09505494    -0.20900
C2184       C  0.31698624  0.51284825  0.09892431    -0.13500
C2185       C  0.33661524  0.49077663  0.10758317     0.03200
C2186       C  0.36675926  0.49793128  0.11062072    -0.25600
H2187       H  0.43689047  0.57009167  0.12014884     0.08300
H2188       H  0.42192123  0.51817163  0.11871744     0.11900
H2189       H  0.34944378  0.59639971  0.09573266     0.11800
H2190       H  0.31089012  0.55854141  0.08933563     0.11500
H2191       H  0.29372273  0.50799190  0.09619354     0.12100
H2192       H  0.38219728  0.48122118  0.11729432     0.14000
C2193       C  0.42174889  0.70864151  0.94251381    -0.06000
C2194       C  0.44980056  0.70740248  0.95479985    -0.05900
C2195       C  0.45259482  0.70674697  0.98255352    -0.24100
C2196       C  0.42738809  0.70726398  0.99857657     0.18100
C2197       C  0.39909049  0.70835468  0.98643971     0.15400
C2198       C  0.39644809  0.70909129  0.95853224    -0.19100
C2199       C  0.37385210  0.70847505  0.00242164    -0.20900
C2200       C  0.37656677  0.70716826  0.03014316    -0.13500
C2201       C  0.40455805  0.70608077  0.04242155     0.03200
C2202       C  0.42996675  0.70639598  0.02650456    -0.25600
H2203       H  0.46971093  0.70685859  0.94293928     0.08300
H2204       H  0.47444849  0.70574727  0.99146272     0.11900
H2205       H  0.37472551  0.70995253  0.94932937     0.11800
H2206       H  0.35200654  0.70930811  0.99348583     0.11500
H2207       H  0.35666945  0.70701178  0.04203269     0.12100
H2208       H  0.45163855  0.70525821  0.03579276     0.14000
C2209       C  0.51457298  0.72344259  0.29165001    -0.06000
C2210       C  0.48435832  0.71686459  0.29376863    -0.05900
C2211       C  0.46591559  0.71743530  0.27130826    -0.24100
C2212       C  0.47751950  0.72405267  0.24614915     0.18100
C2213       C  0.50760203  0.73233747  0.24397043     0.15400
C2214       C  0.52597708  0.73220380  0.26686900    -0.19100
C2215       C  0.51919987  0.73840266  0.21862291    -0.20900
C2216       C  0.50177885  0.73440379  0.19563394    -0.13500
C2217       C  0.47243364  0.72465100  0.19761552     0.03200
C2218       C  0.46015188  0.72032136  0.22296794    -0.25600
H2219       H  0.47536865  0.70962462  0.31266551     0.08300
H2220       H  0.44294799  0.71108470  0.27338616     0.11900
H2221       H  0.54943393  0.73657254  0.26504135     0.11800
H2222       H  0.54216167  0.74470515  0.21647055     0.11500
H2223       H  0.51176654  0.73712654  0.17619530     0.12100
H2224       H  0.43771444  0.71206547  0.22451388     0.14000
C2225       C  0.36124070  0.64805455  0.19611527    -0.06000
C2226       C  0.33960422  0.62613504  0.19281221    -0.05900
C2227       C  0.32359013  0.61622396  0.21465851    -0.24100
C2228       C  0.32881025  0.62847270  0.23993030     0.18100
C2229       C  0.34933699  0.65185567  0.24305589     0.15400
C2230       C  0.36568873  0.66133002  0.22108570    -0.19100
C2231       C  0.35409147  0.66437207  0.26832860    -0.20900
C2232       C  0.34037772  0.65225353  0.29063697    -0.13500
C2233       C  0.32198272  0.62744989  0.28781579     0.03200
C2234       C  0.31517653  0.61652330  0.26234477    -0.25600
H2235       H  0.33597473  0.61583790  0.17351669     0.08300
H2236       H  0.30780740  0.59843401  0.21195033     0.11900
H2237       H  0.38217967  0.67856340  0.22343588     0.11800
H2238       H  0.36947259  0.68251372  0.27100641     0.11500
H2239       H  0.34591943  0.66083329  0.31025068     0.12100
H2240       H  0.30077487  0.59748829  0.26018285     0.14000
loop_ 
_geom_bond_atom_site_label_1 
_geom_bond_atom_site_label_2 
_geom_bond_distance 
_geom_bond_site_symmetry_2 
_ccdc_geom_bond_type 
O1           C16   1.261       .  A
O1           Al9   1.899       .  S
C2           O12   1.261       .  A
C2            O3   1.261       .  A
C2         C2225   1.458       .  S
O3           Al5   1.903       .  S
O4            C6   1.259       .  A
O4           Al5   1.879       .  S
Al5          O13   1.912       .  S
Al5          O15   1.898       .  S
Al5          O14   1.786       .  S
C6           O19   1.266       .  A
C6         C2153   1.490       .  S
O7           C17   1.262       .  A
O7           Al9   1.922       .  S
O8           C21   1.262       .  A
O8          Al18   1.881       .  S
Al9          O22   1.935       .  S
Al9          O19   1.943       .  S
Al9          O14   1.793       .  S
O10          C17   1.258       .  A
O10         Al18   1.906       .  S
O11          C20   1.261       .  A
O11         Al18   1.914       .  S
O12         Al18   1.889       .  S
O13          C20   1.261       .  A
O14         Al18   1.777       .  S
O15          C16   1.260       .  A
C16        C2201   1.475       .  S
C17        C2217   1.474       .  S
C20        C2177   1.483       .  S
C21          O22   1.268       .  A
C21        C2161   1.478       .  S
O23          C38   1.271       .  A
O23         Al31   1.952       .  S
C24          O34   1.267       .  A
C24          O25   1.260       .  A
C24        C2097   1.472       .  S
O25         Al27   1.881       .  S
O26          C28   1.262       .  A
O26         Al27   1.917       .  S
Al27         O35   1.928       .  S
Al27         O37   1.880       .  S
Al27         O36   1.773       .  S
C28          O41   1.258       .  A
C28        C2081   1.463       .  S
O29          C39   1.267       .  A
O29         Al31   1.952       .  S
O30          C43   1.268       .  A
O30         Al40   1.934       .  S
Al31         O44   1.868       .  S
Al31         O41   1.902       .  S
Al31         O36   1.787       .  S
O32          C39   1.256       .  A
O32         Al40   1.873       .  S
O33          C42   1.258       .  A
O33         Al40   1.892       .  S
O34         Al40   1.936       .  S
O35          C42   1.263       .  A
O36         Al40   1.781       .  S
O37          C38   1.261       .  A
C38        C2113   1.484       .  S
C39        C2065   1.482       .  S
C42        C2129   1.475       .  S
C43          O44   1.256       .  A
C43        C2193   1.478       .  S
O45          C60   1.264       .  A
O45         Al53   1.909       .  S
C46          O56   1.259       .  A
C46          O47   1.262       .  A
C46        C2033   1.459       .  S
O47         Al49   1.918       .  S
O48          C50   1.258       .  A
O48         Al49   1.870       .  S
Al49         O57   1.903       .  S
Al49         O59   1.902       .  S
Al49         O58   1.781       .  S
C50          O63   1.270       .  A
C50        C1993   1.481       .  S
O51          C61   1.263       .  A
O51         Al53   1.930       .  S
O52          C65   1.258       .  A
O52         Al62   1.867       .  S
Al53         O66   1.963       .  S
Al53         O63   1.957       .  S
Al53         O58   1.788       .  S
O54          C61   1.259       .  A
O54         Al62   1.904       .  S
O55          C64   1.260       .  A
O55         Al62   1.901       .  S
O56         Al62   1.886       .  S
O57          C64   1.260       .  A
O58         Al62   1.768       .  S
O59          C60   1.262       .  A
C60        C2017   1.481       .  S
C61        C2049   1.476       .  S
C64        C2169   1.465       .  S
C65          O66   1.273       .  A
C65        C2009   1.486       .  S
O67          C82   1.272       .  A
O67         Al75   1.961       .  S
C68          O78   1.265       .  A
C68          O69   1.258       .  A
C68        C1937   1.464       .  S
O69         Al71   1.876       .  S
O70          C72   1.259       .  A
O70         Al71   1.903       .  S
Al71         O79   1.913       .  S
Al71         O81   1.870       .  S
Al71         O80   1.768       .  S
C72          O85   1.259       .  A
C72        C1953   1.463       .  S
O73          C83   1.269       .  A
O73         Al75   1.959       .  S
O74          C87   1.267       .  A
O74         Al84   1.927       .  S
Al75         O88   1.880       .  S
Al75         O85   1.904       .  S
Al75         O80   1.791       .  S
O76          C83   1.257       .  A
O76         Al84   1.873       .  S
O77          C86   1.261       .  A
O77         Al84   1.903       .  S
O78         Al84   1.937       .  S
O79          C86   1.262       .  A
O80         Al84   1.784       .  S
O81          C82   1.259       .  A
C82        C1977   1.487       .  S
C83        C1921   1.481       .  S
C86        C2121   1.477       .  S
C87          O88   1.259       .  A
C87        C2025   1.481       .  S
O89         C104   1.266       .  A
O89         Al97   1.907       .  S
C90         O100   1.259       .  A
C90          O91   1.262       .  A
C90        C1897   1.459       .  S
O91         Al93   1.918       .  S
O92          C94   1.259       .  A
O92         Al93   1.882       .  S
Al93        O101   1.906       .  S
Al93        O103   1.906       .  S
Al93        O102   1.783       .  S
C94         O107   1.270       .  A
C94        C1841   1.492       .  S
O95         C105   1.268       .  A
O95         Al97   1.941       .  S
O96         C109   1.260       .  A
O96        Al106   1.883       .  S
Al97        O110   1.967       .  S
Al97        O107   1.970       .  S
Al97        O102   1.791       .  S
O98         C105   1.262       .  A
O98        Al106   1.899       .  S
O99         C108   1.261       .  A
O99        Al106   1.911       .  S
O100       Al106   1.881       .  S
O101        C108   1.260       .  A
O102       Al106   1.768       .  S
O103        C104   1.264       .  A
C104       C1881   1.481       .  S
C105       C1913   1.481       .  S
C108       C2001   1.476       .  S
C109        O110   1.273       .  A
C109       C1857   1.492       .  S
O111        C126   1.274       .  A
O111       Al119   1.964       .  S
C112        O122   1.267       .  A
C112        O113   1.259       .  A
C112       C1793   1.463       .  S
O113       Al115   1.877       .  S
O114        C116   1.257       .  A
O114       Al115   1.901       .  S
Al115       O123   1.909       .  S
Al115       O125   1.875       .  S
Al115       O124   1.771       .  S
C116        O129   1.258       .  A
C116       C1809   1.465       .  S
O117        C127   1.268       .  A
O117       Al119   1.956       .  S
O118        C131   1.267       .  A
O118       Al128   1.930       .  S
Al119       O132   1.874       .  S
Al119       O129   1.909       .  S
Al119       O124   1.789       .  S
O120        C127   1.255       .  A
O120       Al128   1.863       .  S
O121        C130   1.260       .  A
O121       Al128   1.904       .  S
O122       Al128   1.936       .  S
O123        C130   1.261       .  A
O124       Al128   1.786       .  S
O125        C126   1.262       .  A
C126       C1833   1.489       .  S
C127       C1785   1.477       .  S
C130       C1969   1.475       .  S
C131        O132   1.258       .  A
C131       C1873   1.481       .  S
O133        C148   1.270       .  A
O133       Al141   1.908       .  S
C134        O144   1.259       .  A
C134        O135   1.263       .  A
C134       C1761   1.465       .  S
O135       Al137   1.917       .  S
O136        C138   1.254       .  A
O136       Al137   1.882       .  S
Al137       O145   1.898       .  S
Al137       O147   1.912       .  S
Al137       O146   1.786       .  S
C138        O151   1.260       .  A
C138       C1713   1.484       .  S
O139        C149   1.270       .  A
O139       Al141   1.952       .  S
O140        C153   1.264       .  A
O140       Al150   1.905       .  S
Al141       O154   1.937       .  S
Al141       O151   1.929       .  S
Al141       O146   1.789       .  S
O142        C149   1.263       .  A
O142       Al150   1.910       .  S
O143        C152   1.259       .  A
O143       Al150   1.914       .  S
O144       Al150   1.884       .  S
O145        C152   1.257       .  A
O146       Al150   1.778       .  S
O147        C148   1.267       .  A
C148       C1729   1.483       .  S
C149       C1753   1.488       .  S
C152       C1865   1.482       .  S
C153        O154   1.269       .  A
C153       C2185   1.489       .  S
O155        C170   1.276       .  A
O155       Al163   1.962       .  S
C156        O166   1.275       .  A
C156        O157   1.262       .  A
C156       C1697   1.475       .  S
O157       Al159   1.860       .  S
O158        C160   1.258       .  A
O158       Al159   1.905       .  S
Al159       O167   1.904       .  S
Al159       O169   1.886       .  S
Al159       O168   1.777       .  S
C160        O173   1.260       .  A
C160       C1681   1.469       .  S
O161        C171   1.263       .  A
O161       Al163   1.949       .  S
O162        C175   1.271       .  A
O162       Al172   1.947       .  S
Al163       O176   1.860       .  S
Al163       O173   1.921       .  S
Al163       O168   1.791       .  S
O164        C171   1.250       .  A
O164       Al172   1.863       .  S
O165        C174   1.254       .  A
O165       Al172   1.904       .  S
O166       Al172   1.959       .  S
O167        C174   1.255       .  A
O168       Al172   1.788       .  S
O169        C170   1.265       .  A
C170       C2137   1.486       .  S
C171       C1665   1.480       .  S
C174       C1825   1.483       .  S
C175        O176   1.258       .  A
C175       C1737   1.485       .  S
O177        C192   1.267       .  A
O177       Al185   1.902       .  S
C178        O188   1.259       .  A
C178        O179   1.261       .  A
C178       C1889   1.460       .  S
O179       Al181   1.908       .  S
O180        C182   1.258       .  A
O180       Al181   1.888       .  S
Al181       O189   1.890       .  S
Al181       O191   1.905       .  S
Al181       O190   1.775       .  S
C182        O195   1.266       .  A
C182       C1601   1.491       .  S
O183        C193   1.268       .  A
O183       Al185   1.926       .  S
O184        C197   1.261       .  A
O184       Al194   1.892       .  S
Al185       O198   1.962       .  S
Al185       O195   1.954       .  S
Al185       O190   1.784       .  S
O186        C193   1.266       .  A
O186       Al194   1.920       .  S
O187        C196   1.265       .  A
O187       Al194   1.930       .  S
O188       Al194   1.886       .  S
O189        C196   1.258       .  A
O190       Al194   1.772       .  S
O191        C192   1.265       .  A
C192       C1649   1.474       .  S
C193       C2057   1.476       .  S
C196       C1633   1.483       .  S
C197        O198   1.271       .  A
C197       C1625   1.493       .  S
O199        C214   1.270       .  A
O199       Al207   1.933       .  S
C200        O210   1.266       .  A
C200        O201   1.261       .  A
C200       C1801   1.466       .  S
O201       Al203   1.881       .  S
O202        C204   1.260       .  A
O202       Al203   1.913       .  S
Al203       O211   1.914       .  S
Al203       O213   1.896       .  S
Al203       O212   1.776       .  S
C204        O217   1.260       .  A
C204       C1961   1.464       .  S
O205        C215   1.262       .  A
O205       Al207   1.930       .  S
O206        C219   1.268       .  A
O206       Al216   1.924       .  S
Al207       O220   1.868       .  S
Al207       O217   1.909       .  S
Al207       O212   1.783       .  S
O208        C215   1.257       .  A
O208       Al216   1.888       .  S
O209        C218   1.260       .  A
O209       Al216   1.908       .  S
O210       Al216   1.925       .  S
O211        C218   1.262       .  A
O212       Al216   1.783       .  S
O213        C214   1.264       .  A
C214       C1569   1.482       .  S
C215       C1561   1.476       .  S
C218       C1593   1.486       .  S
C219        O220   1.258       .  A
C219       C1657   1.474       .  S
O221        C236   1.260       .  A
O221       Al229   1.881       .  S
C222        O232   1.262       .  A
C222        O223   1.266       .  A
C222       C2041   1.462       .  S
O223       Al225   1.916       .  S
O224        C226   1.256       .  A
O224       Al225   1.879       .  S
Al225       O233   1.909       .  S
Al225       O235   1.911       .  S
Al225       O234   1.788       .  S
C226        O239   1.263       .  A
C226       C1513   1.487       .  S
O227        C237   1.263       .  A
O227       Al229   1.927       .  S
O228        C241   1.264       .  A
O228       Al238   1.890       .  S
Al229       O242   1.937       .  S
Al229       O239   1.933       .  S
Al229       O234   1.793       .  S
O230        C237   1.259       .  A
O230       Al238   1.909       .  S
O231        C240   1.259       .  A
O231       Al238   1.911       .  S
O232       Al238   1.879       .  S
O233        C240   1.257       .  A
O234       Al238   1.777       .  S
O235        C236   1.265       .  A
C236       C1537   1.474       .  S
C237       C2209   1.474       .  S
C240       C1617   1.482       .  S
C241        O242   1.270       .  A
C241       C1529   1.480       .  S
O243        C258   1.265       .  A
O243       Al251   1.925       .  S
C244        O254   1.258       .  A
C244        O245   1.260       .  A
C244       C1945   1.460       .  S
O245       Al247   1.902       .  S
O246        C248   1.256       .  A
O246       Al247   1.872       .  S
Al247       O255   1.899       .  S
Al247       O257   1.897       .  S
Al247       O256   1.779       .  S
C248        O261   1.263       .  A
C248       C2089   1.473       .  S
O249        C259   1.263       .  A
O249       Al251   1.924       .  S
O250        C263   1.259       .  A
O250       Al260   1.871       .  S
Al251       O264   1.927       .  S
Al251       O261   1.929       .  S
Al251       O256   1.800       .  S
O252        C259   1.258       .  A
O252       Al260   1.895       .  S
O253        C262   1.261       .  A
O253       Al260   1.910       .  S
O254       Al260   1.891       .  S
O255        C262   1.259       .  A
O256       Al260   1.791       .  S
O257        C258   1.260       .  A
C258       C1497   1.485       .  S
C259       C1481   1.475       .  S
C262       C1577   1.482       .  S
C263        O264   1.267       .  A
C263       C1545   1.474       .  S
O265        C280   1.265       .  A
O265       Al273   1.912       .  S
C266        O276   1.259       .  A
C266        O267   1.262       .  A
C266       C2233   1.462       .  S
O267       Al269   1.916       .  S
O268        C270   1.258       .  A
O268       Al269   1.877       .  S
Al269       O277   1.899       .  S
Al269       O279   1.901       .  S
Al269       O278   1.780       .  S
C270        O283   1.269       .  A
C270       C1425   1.481       .  S
O271        C281   1.267       .  A
O271       Al273   1.945       .  S
O272        C285   1.257       .  A
O272       Al282   1.866       .  S
Al273       O286   1.968       .  S
Al273       O283   1.952       .  S
Al273       O278   1.787       .  S
O274        C281   1.261       .  A
O274       Al282   1.899       .  S
O275        C284   1.260       .  A
O275       Al282   1.903       .  S
O276       Al282   1.878       .  S
O277        C284   1.259       .  A
O278       Al282   1.763       .  S
O279        C280   1.263       .  A
C280       C1465   1.474       .  S
C281       C1745   1.484       .  S
C284       C1521   1.466       .  S
C285        O286   1.273       .  A
C285       C1441   1.485       .  S
O287        C302   1.262       .  A
O287       Al295   1.897       .  S
C288        O298   1.261       .  A
C288        O289   1.262       .  A
C288       C2105   1.459       .  S
O289       Al291   1.904       .  S
O290        C292   1.259       .  A
O290       Al291   1.895       .  S
Al291       O299   1.895       .  S
Al291       O301   1.909       .  S
Al291       O300   1.771       .  S
C292        O305   1.261       .  A
C292       C1689   1.482       .  S
O293        C303   1.258       .  A
O293       Al295   1.894       .  S
O294        C307   1.264       .  A
O294       Al304   1.898       .  S
Al295       O308   1.923       .  S
Al295       O305   1.917       .  S
Al295       O300   1.788       .  S
O296        C303   1.262       .  A
O296       Al304   1.917       .  S
O297        C306   1.263       .  A
O297       Al304   1.934       .  S
O298       Al304   1.904       .  S
O299        C306   1.260       .  A
O300       Al304   1.788       .  S
O301        C302   1.264       .  A
C302       C1409   1.477       .  S
C303       C1401   1.460       .  S
C306       C1489   1.490       .  S
C307        O308   1.266       .  A
C307       C1457   1.482       .  S
O309        C324   1.262       .  A
O309       Al317   1.891       .  S
C310        O320   1.257       .  A
C310        O311   1.268       .  A
C310       C1769   1.463       .  S
O311       Al313   1.942       .  S
O312        C314   1.250       .  A
O312       Al313   1.862       .  S
Al313       O321   1.888       .  S
Al313       O323   1.925       .  S
Al313       O322   1.790       .  S
C314        O327   1.262       .  A
C314       C1369   1.470       .  S
O315        C325   1.262       .  A
O315       Al317   1.921       .  S
O316        C329   1.261       .  A
O316       Al326   1.879       .  S
Al317       O330   1.955       .  S
Al317       O327   1.939       .  S
Al317       O322   1.798       .  S
O318        C325   1.261       .  A
O318       Al326   1.909       .  S
O319        C328   1.257       .  A
O319       Al326   1.912       .  S
O320       Al326   1.862       .  S
O321        C328   1.252       .  A
O322       Al326   1.778       .  S
O323        C324   1.268       .  A
C324       C1385   1.484       .  S
C325       C1905   1.483       .  S
C328       C1449   1.474       .  S
C329        O330   1.272       .  A
C329       C1641   1.487       .  S
O331        C346   1.266       .  A
O331       Al339   1.935       .  S
C332        O342   1.261       .  A
C332        O333   1.258       .  A
C332       C1705   1.462       .  S
O333       Al335   1.896       .  S
O334        C336   1.258       .  A
O334       Al335   1.880       .  S
Al335       O343   1.883       .  S
Al335       O345   1.892       .  S
Al335       O344   1.769       .  S
C336        O349   1.268       .  A
C336       C1817   1.472       .  S
O337        C347   1.265       .  A
O337       Al339   1.928       .  S
O338        C351   1.263       .  A
O338       Al348   1.888       .  S
Al339       O352   1.940       .  S
Al339       O349   1.947       .  S
Al339       O344   1.785       .  S
O340        C347   1.262       .  A
O340       Al348   1.911       .  S
O341        C350   1.268       .  A
O341       Al348   1.940       .  S
O342       Al348   1.918       .  S
O343        C350   1.260       .  A
O344       Al348   1.781       .  S
O345        C346   1.260       .  A
C346       C1585   1.487       .  S
C347       C1345   1.484       .  S
C350       C1417   1.481       .  S
C351        O352   1.270       .  A
C351       C1377   1.486       .  S
O353        C368   1.265       .  A
O353       Al361   1.900       .  S
C354        O364   1.258       .  A
C354        O355   1.268       .  A
C354       C1337   1.469       .  S
O355       Al357   1.937       .  S
O356        C358   1.253       .  A
O356       Al357   1.858       .  S
Al357       O365   1.882       .  S
Al357       O367   1.927       .  S
Al357       O366   1.771       .  S
C358        O371   1.268       .  A
C358       C1553   1.480       .  S
O359        C369   1.264       .  A
O359       Al361   1.922       .  S
O360        C373   1.261       .  A
O360       Al370   1.879       .  S
Al361       O374   1.964       .  S
Al361       O371   1.962       .  S
Al361       O366   1.781       .  S
O362        C369   1.263       .  A
O362       Al370   1.926       .  S
O363        C372   1.265       .  A
O363       Al370   1.929       .  S
O364       Al370   1.874       .  S
O365        C372   1.255       .  A
O366       Al370   1.772       .  S
O367        C368   1.269       .  A
C368       C1297   1.486       .  S
C369       C1313   1.474       .  S
C372       C1281   1.479       .  S
C373        O374   1.274       .  A
C373       C1265   1.486   1_655  S
O375        C390   1.271       .  A
O375       Al383   1.940       .  S
C376        O386   1.264       .  A
C376        O377   1.261       .  A
C376       C1201   1.465       .  S
O377       Al379   1.887       .  S
O378        C380   1.256       .  A
O378       Al379   1.896       .  S
Al379       O387   1.897       .  S
Al379       O389   1.897       .  S
Al379       O388   1.780       .  S
C380        O393   1.260       .  A
C380       C1225   1.471       .  S
O381        C391   1.264       .  A
O381       Al383   1.942       .  S
O382        C395   1.266       .  A
O382       Al392   1.921       .  S
Al383       O396   1.894       .  S
Al383       O393   1.922       .  S
Al383       O388   1.796       .  S
O384        C391   1.257       .  A
O384       Al392   1.879       .  S
O385        C394   1.262       .  A
O385       Al392   1.921       .  S
O386       Al392   1.923       .  S
O387        C394   1.258       .  A
O388       Al392   1.794       .  S
O389        C390   1.264       .  A
C390       C1241   1.489   1_655  S
C391       C1609   1.486       .  S
C394       C1249   1.483       .  S
C395        O396   1.262       .  A
C395       C1305   1.486       .  S
O397        C412   1.268       .  A
O397       Al405   1.902       .  S
C398        O408   1.256       .  A
C398        O399   1.265       .  A
C398       C1185   1.476       .  S
O399       Al401   1.934       .  S
O400        C402   1.253       .  A
O400       Al401   1.883       .  S
Al401       O409   1.881       .  S
Al401       O411   1.939       .  S
Al401       O410   1.781       .  S
C402        O415   1.258       .  A
C402       C1393   1.474       .  S
O403        C413   1.268       .  A
O403       Al405   1.922       .  S
O404        C417   1.259       .  A
O404       Al414   1.893       .  S
Al405       O418   1.924       .  S
Al405       O415   1.919       .  S
Al405       O410   1.790       .  S
O406        C413   1.267       .  A
O406       Al414   1.925       .  S
O407        C416   1.263       .  A
O407       Al414   1.921       .  S
O408       Al414   1.865       .  S
O409        C416   1.255       .  A
O410       Al414   1.776       .  S
O411        C412   1.273       .  A
C412       C1161   1.489       .  S
C413       C1169   1.474       .  S
C416       C1137   1.482       .  S
C417        O418   1.263       .  A
C417       C1121   1.479   1_455  S
O419        C434   1.263       .  A
O419       Al427   1.916       .  S
C420        O430   1.261       .  A
C420        O421   1.257       .  A
C420       C1081   1.465       .  S
O421       Al423   1.895       .  S
O422        C424   1.260       .  A
O422       Al423   1.884       .  S
Al423       O431   1.876       .  S
Al423       O433   1.888       .  S
Al423       O432   1.771       .  S
C424        O437   1.270       .  A
C424       C1065   1.487       .  S
O425        C435   1.263       .  A
O425       Al427   1.910       .  S
O426        C439   1.263       .  A
O426       Al436   1.906       .  S
Al427       O440   1.929       .  S
Al427       O437   1.959       .  S
Al427       O432   1.784       .  S
O428        C435   1.263       .  A
O428       Al436   1.912       .  S
O429        C438   1.268       .  A
O429       Al436   1.938       .  S
O430       Al436   1.921       .  S
O431        C438   1.258       .  A
O432       Al436   1.786       .  S
O433        C434   1.258       .  A
C434       C1097   1.474       .  S
C435       C1433   1.469       .  S
C438       C1105   1.477       .  S
C439        O440   1.267       .  A
C439       C1153   1.490       .  S
O441        C456   1.263       .  A
O441       Al449   1.903       .  S
C442        O452   1.257       .  A
C442        O443   1.267       .  A
C442       C1025   1.461       .  S
O443       Al445   1.941       .  S
O444        C446   1.259       .  A
O444       Al445   1.872       .  S
Al445       O453   1.904       .  S
Al445       O455   1.920       .  S
Al445       O454   1.779       .  S
C446        O459   1.271       .  A
C446       C1473   1.484       .  S
O447        C457   1.260       .  A
O447       Al449   1.924       .  S
O448        C461   1.256       .  A
O448       Al458   1.848       .  S
Al449       O462   1.975       .  S
Al449       O459   1.953       .  S
Al449       O454   1.784       .  S
O450        C457   1.256       .  A
O450       Al458   1.900       .  S
O451        C460   1.261       .  A
O451       Al458   1.911       .  S
O452       Al458   1.873       .  S
O453        C460   1.260       .  A
O454       Al458   1.768       .  S
O455        C456   1.265       .  A
C456       C1009   1.488       .  S
C457       C1041   1.470       .  S
C460       C1129   1.472       .  S
C461        O462   1.276       .  A
C461       C1289   1.482   1_565  S
O463        C478   1.260       .  A
O463       Al471   1.914       .  S
C464        O474   1.261       .  A
C464        O465   1.263       .  A
C464        C977   1.459       .  S
O465       Al467   1.911       .  S
O466        C468   1.258       .  A
O466       Al467   1.875       .  S
Al467       O475   1.909       .  S
Al467       O477   1.897       .  S
Al467       O476   1.787       .  S
C468        O481   1.268       .  A
C468        C993   1.482       .  S
O469        C479   1.258       .  A
O469       Al471   1.929       .  S
O470        C483   1.262       .  A
O470       Al480   1.873       .  S
Al471       O484   1.951       .  S
Al471       O481   1.944       .  S
Al471       O476   1.800       .  S
O472        C479   1.251       .  A
O472       Al480   1.876       .  S
O473        C482   1.256       .  A
O473       Al480   1.893       .  S
O474       Al480   1.901       .  S
O475        C482   1.260       .  A
O476       Al480   1.792       .  S
O477        C478   1.258       .  A
C478       C1257   1.490       .  S
C479       C1505   1.478       .  S
C482       C1089   1.478       .  S
C483        O484   1.274       .  A
C483       C1017   1.484       .  S
O485        C500   1.260       .  A
O485       Al493   1.898       .  S
C486        O496   1.261       .  A
C486        O487   1.268       .  A
C486        C969   1.467       .  S
O487       Al489   1.935       .  S
O488        C490   1.257       .  A
O488       Al489   1.875       .  S
Al489       O497   1.904       .  S
Al489       O499   1.913       .  S
Al489       O498   1.785       .  S
C490        O503   1.270       .  A
C490       C1353   1.477       .  S
O491        C501   1.260       .  A
O491       Al493   1.926       .  S
O492        C505   1.259       .  A
O492       Al502   1.858       .  S
Al493       O506   1.969       .  S
Al493       O503   1.954       .  S
Al493       O498   1.789       .  S
O494        C501   1.255       .  A
O494       Al502   1.899       .  S
O495        C504   1.260       .  A
O495       Al502   1.914       .  S
O496       Al502   1.880       .  S
O497        C504   1.258       .  A
O498       Al502   1.775       .  S
O499        C500   1.263       .  A
C500        C929   1.485       .  S
C501        C945   1.473       .  S
C504       C1273   1.475       .  S
C505        O506   1.276       .  A
C505       C1145   1.485   1_545  S
O507        C522   1.255       .  A
O507       Al515   1.884       .  S
C508        O518   1.264       .  A
C508        O509   1.266       .  A
C508        C913   1.459       .  S
O509       Al511   1.910       .  S
O510        C512   1.257       .  A
O510       Al511   1.877       .  S
Al511       O519   1.901       .  S
Al511       O521   1.898       .  S
Al511       O520   1.776       .  S
C512        O525   1.267       .  A
C512        C897   1.476       .  S
O513        C523   1.256       .  A
O513       Al515   1.917       .  S
O514        C527   1.265       .  A
O514       Al524   1.878       .  S
Al515       O528   1.955       .  S
Al515       O525   1.944       .  S
Al515       O520   1.790       .  S
O516        C523   1.257       .  A
O516       Al524   1.901       .  S
O517        C526   1.262       .  A
O517       Al524   1.933       .  S
O518       Al524   1.906       .  S
O519        C526   1.258       .  A
O520       Al524   1.788       .  S
O521        C522   1.259       .  A
C522       C1113   1.469   1_545  S
C523       C1361   1.476       .  S
C526       C1233   1.488       .  S
C527        O528   1.276       .  A
C527        C937   1.482       .  S
O529        C544   1.276       .  A
O529       Al537   1.976       .  S
C530        O540   1.270       .  A
C530        O531   1.260       .  A
C530       C1209   1.469       .  S
O531       Al533   1.873       .  S
O532        C534   1.257       .  A
O532       Al533   1.903       .  S
Al533       O541   1.907       .  S
Al533       O543   1.866       .  S
Al533       O542   1.771       .  S
C534        O547   1.262       .  A
C534       C1001   1.472       .  S
O535        C545   1.270       .  A
O535       Al537   1.965       .  S
O536        C549   1.267       .  A
O536       Al546   1.930       .  S
Al537       O550   1.882       .  S
Al537       O547   1.929       .  S
Al537       O542   1.786       .  S
O538        C545   1.256       .  A
O538       Al546   1.877       .  S
O539        C548   1.257       .  A
O539       Al546   1.905       .  S
O540       Al546   1.941       .  S
O541        C548   1.259       .  A
O542       Al546   1.784       .  S
O543        C544   1.260       .  A
C544        C857   1.489   1_545  S
C545       C1849   1.490       .  S
C548        C873   1.472       .  S
C549        O550   1.259       .  A
C549        C881   1.485       .  S
O551        C566   1.266       .  A
O551       Al559   1.903       .  S
C552        O562   1.256       .  A
C552        O553   1.265       .  A
C552       C1329   1.462       .  S
O553       Al555   1.930       .  S
O554        C556   1.257       .  A
O554       Al555   1.883       .  S
Al555       O563   1.903       .  S
Al555       O565   1.924       .  S
Al555       O564   1.777       .  S
C556        O569   1.268       .  A
C556       C1777   1.482       .  S
O557        C567   1.262       .  A
O557       Al559   1.916       .  S
O558        C571   1.260       .  A
O558       Al568   1.878       .  S
Al559       O572   1.974       .  S
Al559       O569   1.954       .  S
Al559       O564   1.785       .  S
O560        C567   1.263       .  A
O560       Al568   1.922       .  S
O561        C570   1.266       .  A
O561       Al568   1.931       .  S
O562       Al568   1.877       .  S
O563        C570   1.261       .  A
O564       Al568   1.769       .  S
O565        C566   1.268       .  A
C566        C889   1.485       .  S
C567       C1049   1.471       .  S
C570        C833   1.487       .  S
C571        O572   1.274       .  A
C571        C825   1.494   1_545  S
O573        C588   1.270       .  A
O573       Al581   1.932       .  S
C574        O584   1.270       .  A
C574        O575   1.260       .  A
C574        C985   1.469       .  S
O575       Al577   1.865       .  S
O576        C578   1.260       .  A
O576       Al577   1.912       .  S
Al577       O585   1.907       .  S
Al577       O587   1.892       .  S
Al577       O586   1.779       .  S
C578        O591   1.265       .  A
C578       C1057   1.475       .  S
O579        C589   1.260       .  A
O579       Al581   1.930       .  S
O580        C593   1.270       .  A
O580       Al590   1.938       .  S
Al581       O594   1.881       .  S
Al581       O591   1.932       .  S
Al581       O586   1.787       .  S
O582        C589   1.253       .  A
O582       Al590   1.877       .  S
O583        C592   1.256       .  A
O583       Al590   1.900       .  S
O584       Al590   1.942       .  S
O585        C592   1.258       .  A
O586       Al590   1.786       .  S
O587        C588   1.264       .  A
C588        C793   1.478   1_655  S
C589       C1985   1.478       .  S
C592        C849   1.481       .  S
C593        O594   1.262       .  A
C593        C801   1.487       .  S
O595        C610   1.268       .  A
O595       Al603   1.900       .  S
C596        O606   1.256       .  A
C596        O597   1.264       .  A
C596       C1033   1.467       .  S
O597       Al599   1.919       .  S
O598        C600   1.255       .  A
O598       Al599   1.891       .  S
Al599       O607   1.897       .  S
Al599       O609   1.928       .  S
Al599       O608   1.783       .  S
C600        O613   1.262       .  A
C600       C1929   1.487       .  S
O601        C611   1.268       .  A
O601       Al603   1.928       .  S
O602        C615   1.262       .  A
O602       Al612   1.902       .  S
Al603       O616   1.939       .  S
Al603       O613   1.943       .  S
Al603       O608   1.789       .  S
O604        C611   1.264       .  A
O604       Al612   1.916       .  S
O605        C614   1.263       .  A
O605       Al612   1.926       .  S
O606       Al612   1.871       .  S
O607        C614   1.258       .  A
O608       Al612   1.782       .  S
O609        C610   1.270       .  A
C610        C809   1.485       .  S
C611       C1177   1.473       .  S
C614        C817   1.490       .  S
C615        O616   1.268       .  A
C615        C769   1.490   1_655  S
O617        C632   1.264       .  A
O617       Al625   1.923       .  S
C618        O628   1.261       .  A
C618        O619   1.262       .  A
C618       C1073   1.468       .  S
O619       Al621   1.904       .  S
O620        C622   1.256       .  A
O620       Al621   1.873       .  S
Al621       O629   1.896       .  S
Al621       O631   1.898       .  S
Al621       O630   1.779       .  S
C622        O635   1.268       .  A
C622        C905   1.478       .  S
O623        C633   1.264       .  A
O623       Al625   1.932       .  S
O624        C637   1.263       .  A
O624       Al634   1.884       .  S
Al625       O638   1.947       .  S
Al625       O635   1.951       .  S
Al625       O630   1.796       .  S
O626        C633   1.258       .  A
O626       Al634   1.890       .  S
O627        C636   1.261       .  A
O627       Al634   1.910       .  S
O628       Al634   1.908       .  S
O629        C636   1.258       .  A
O630       Al634   1.786       .  S
O631        C632   1.260       .  A
C632        C745   1.487       .  S
C633       C2145   1.482       .  S
C636        C785   1.479       .  S
C637        O638   1.271       .  A
C637        C753   1.489       .  S
O639        C654   1.273       .  A
O639       Al647   1.945       .  S
C640        O650   1.263       .  A
C640        O641   1.262       .  A
C640       C1193   1.460       .  S
O641       Al643   1.908       .  S
O642        C644   1.260       .  A
O642       Al643   1.914       .  S
Al643       O651   1.937       .  S
Al643       O653   1.889       .  S
Al643       O652   1.785       .  S
C644        O657   1.259       .  A
C644       C2073   1.472       .  S
O645        C655   1.267       .  A
O645       Al647   1.950       .  S
O646        C659   1.262       .  A
O646       Al656   1.904       .  S
Al647       O660   1.903       .  S
Al647       O657   1.912       .  S
Al647       O652   1.791       .  S
O648        C655   1.257       .  A
O648       Al656   1.877       .  S
O649        C658   1.260       .  A
O649       Al656   1.900       .  S
O650       Al656   1.908       .  S
O651        C658   1.265       .  A
O652       Al656   1.773       .  S
O653        C654   1.265       .  A
C654        C761   1.488       .  S
C655        C953   1.483       .  S
C658        C777   1.490       .  S
C659        O660   1.260       .  A
C659        C729   1.481   1_565  S
O661        C676   1.279       .  A
O661       Al669   1.965       .  S
C662        O672   1.276       .  A
C662        O663   1.264       .  A
C662        C921   1.474       .  S
O663       Al665   1.864       .  S
O664        C666   1.256       .  A
O664       Al665   1.912       .  S
Al665       O673   1.908       .  S
Al665       O675   1.877       .  S
Al665       O674   1.776       .  S
C666        O679   1.257       .  A
C666       C1217   1.474       .  S
O667        C677   1.263       .  A
O667       Al669   1.940       .  S
O668        C681   1.270       .  A
O668       Al678   1.937       .  S
Al669       O682   1.877       .  S
Al669       O679   1.924       .  S
Al669       O674   1.787       .  S
O670        C677   1.250       .  A
O670       Al678   1.853       .  S
O671        C680   1.254       .  A
O671       Al678   1.907       .  S
O672       Al678   1.956       .  S
O673        C680   1.255       .  A
O674       Al678   1.783       .  S
O675        C676   1.267       .  A
C676        C865   1.484   1_455  S
C677       C1721   1.480       .  S
C680        C737   1.485       .  S
C681        O682   1.259       .  A
C681        C705   1.488       .  S
O683        C698   1.267       .  A
O683       Al691   1.921       .  S
C684        O694   1.259       .  A
C684        O685   1.262       .  A
C684        C961   1.468       .  S
O685       Al687   1.918       .  S
O686        C688   1.261       .  A
O686       Al687   1.895       .  S
Al687       O695   1.918       .  S
Al687       O697   1.902       .  S
Al687       O696   1.785       .  S
C688        O701   1.269       .  A
C688       C1673   1.485       .  S
O689        C699   1.265       .  A
O689       Al691   1.935       .  S
O690        C703   1.259       .  A
O690       Al700   1.875       .  S
Al691       O704   1.966       .  S
Al691       O701   1.952       .  S
Al691       O696   1.789       .  S
O692        C699   1.256       .  A
O692       Al700   1.892       .  S
O693        C702   1.260       .  A
O693       Al700   1.897       .  S
O694       Al700   1.888       .  S
O695        C702   1.263       .  A
O696       Al700   1.772       .  S
O697        C698   1.263       .  A
C698        C713   1.486       .  S
C699       C1321   1.473       .  S
C702        C721   1.477       .  S
C703        O704   1.273       .  A
C703        C841   1.492       .  S
C705        C706   1.410       .  A
C705        C710   1.405       .  A
C706        C707   1.399       .  A
C706        H715   1.083       .  S
C707        C708   1.400   1_554  A
C707        H716   1.084   1_554  S
C708        C714   1.411       .  A
C708        C709   1.416   1_556  A
C709        C711   1.398   1_554  A
C709        C710   1.408       .  A
C710        H717   1.084       .  S
C711        C712   1.395       .  A
C711        H718   1.084       .  S
C712        C713   1.409       .  A
C712        H719   1.083       .  S
C713        C714   1.407       .  A
C714        H720   1.084       .  S
C721        C722   1.405       .  A
C721        C726   1.408       .  A
C722        C723   1.391       .  A
C722        H731   1.084       .  S
C723        C724   1.398       .  A
C723        H732   1.084       .  S
C724        C730   1.400       .  A
C724        C725   1.415       .  A
C725        C727   1.405       .  A
C725        C726   1.412       .  A
C726        H733   1.084       .  S
C727        C728   1.403       .  A
C727        H734   1.083       .  S
C728        C729   1.406       .  A
C728        H735   1.083       .  S
C729        C730   1.404       .  A
C730        H736   1.085   1_545  S
C737        C738   1.406       .  A
C737        C742   1.411       .  A
C738        C739   1.396       .  A
C738        H747   1.083       .  S
C739        C740   1.402       .  A
C739        H748   1.084       .  S
C740        C746   1.404       .  A
C740        C741   1.413       .  A
C741        C743   1.407       .  A
C741        C742   1.412       .  A
C742        H749   1.084       .  S
C743        C744   1.405       .  A
C743        H750   1.083       .  S
C744        C745   1.405   1_545  A
C744        H751   1.083       .  S
C745        C746   1.409   1_565  A
C746        H752   1.085   1_545  S
C753        C754   1.408       .  A
C753        C758   1.411       .  A
C754        C755   1.394       .  A
C754        H763   1.083       .  S
C755        C756   1.399   1_554  A
C755        H764   1.084   1_554  S
C756        C762   1.403       .  A
C756        C757   1.413   1_556  A
C757        C759   1.405   1_554  A
C757        C758   1.412       .  A
C758        H765   1.084       .  S
C759        C760   1.403       .  A
C759        H766   1.084       .  S
C760        C761   1.407       .  A
C760        H767   1.083       .  S
C761        C762   1.407       .  A
C762        H768   1.084       .  S
C769        C770   1.407       .  A
C769        C774   1.410       .  A
C770        C771   1.400       .  A
C770        H779   1.083       .  S
C771        C772   1.402       .  A
C771        H780   1.084       .  S
C772        C778   1.409       .  A
C772        C773   1.413       .  A
C773        C775   1.403       .  A
C773        C774   1.410       .  A
C774        H781   1.084       .  S
C775        C776   1.400       .  A
C775        H782   1.084       .  S
C776        C777   1.408       .  A
C776        H783   1.083       .  S
C777        C778   1.409       .  A
C778        H784   1.084       .  S
C785        C786   1.406       .  A
C785        C790   1.406       .  A
C786        C787   1.398       .  A
C786        H795   1.083       .  S
C787        C788   1.403       .  A
C787        H796   1.084       .  S
C788        C794   1.404       .  A
C788        C789   1.413       .  A
C789        C791   1.401       .  A
C789        C790   1.401       .  A
C790        H797   1.084       .  S
C791        C792   1.395       .  A
C791        H798   1.084       .  S
C792        C793   1.405       .  A
C792        H799   1.083       .  S
C793        C794   1.407       .  A
C794        H800   1.084       .  S
C801        C802   1.409       .  A
C801        C806   1.408       .  A
C802        C803   1.396       .  A
C802        H811   1.083       .  S
C803        C804   1.400   1_554  A
C803        H812   1.084   1_554  S
C804        C810   1.405       .  A
C804        C805   1.414       .  A
C805        C807   1.402       .  A
C805        C806   1.409   1_556  A
C806        H813   1.084       .  S
C807        C808   1.400       .  A
C807        H814   1.084       .  S
C808        C809   1.408       .  A
C808        H815   1.083       .  S
C809        C810   1.406       .  A
C810        H816   1.084       .  S
C817        C818   1.409       .  A
C817        C822   1.405       .  A
C818        C819   1.404       .  A
C818        H827   1.083       .  S
C819        C820   1.404       .  A
C819        H828   1.084       .  S
C820        C826   1.416       .  A
C820        C821   1.415       .  A
C821        C823   1.398       .  A
C821        C822   1.408       .  A
C822        H829   1.084       .  S
C823        C824   1.395       .  A
C823        H830   1.084       .  S
C824        C825   1.410       .  A
C824        H831   1.083   1_565  S
C825        C826   1.411       .  A
C826        H832   1.084       .  S
C833        C834   1.408       .  A
C833        C838   1.405       .  A
C834        C835   1.404       .  A
C834        H843   1.083       .  S
C835        C836   1.405       .  A
C835        H844   1.083       .  S
C836        C842   1.415       .  A
C836        C837   1.415       .  A
C837        C839   1.398       .  A
C837        C838   1.406       .  A
C838        H845   1.085       .  S
C839        C840   1.394       .  A
C839        H846   1.084       .  S
C840        C841   1.410   1_655  A
C840        H847   1.083   1_655  S
C841        C842   1.410   1_455  A
C842        H848   1.084       .  S
C849        C850   1.407       .  A
C849        C854   1.403       .  A
C850        C851   1.403       .  A
C850        H859   1.083       .  S
C851        C852   1.404       .  A
C851        H860   1.083       .  S
C852        C858   1.414       .  A
C852        C853   1.415       .  A
C853        C855   1.396       .  A
C853        C854   1.403       .  A
C854        H861   1.085       .  S
C855        C856   1.392       .  A
C855        H862   1.084       .  S
C856        C857   1.411       .  A
C856        H863   1.083       .  S
C857        C858   1.409       .  A
C858        H864   1.084       .  S
C865        C866   1.406       .  A
C865        C870   1.407       .  A
C866        C867   1.403       .  A
C866        H875   1.083       .  S
C867        C868   1.405       .  A
C867        H876   1.083       .  S
C868        C874   1.409       .  A
C868        C869   1.414       .  A
C869        C871   1.401       .  A
C869        C870   1.400       .  A
C870        H877   1.084       .  S
C871        C872   1.394       .  A
C871        H878   1.084       .  S
C872        C873   1.402       .  A
C872        H879   1.084       .  S
C873        C874   1.407       .  A
C874        H880   1.084       .  S
C881        C882   1.408       .  A
C881        C886   1.406       .  A
C882        C883   1.397       .  A
C882        H891   1.083       .  S
C883        C884   1.401   1_554  A
C883        H892   1.084   1_554  S
C884        C890   1.406       .  A
C884        C885   1.414   1_556  A
C885        C887   1.401   1_554  A
C885        C886   1.406       .  A
C886        H893   1.084       .  S
C887        C888   1.397       .  A
C887        H894   1.084       .  S
C888        C889   1.408       .  A
C888        H895   1.083       .  S
C889        C890   1.407       .  A
C890        H896   1.084       .  S
C897        C898   1.404       .  A
C897        C902   1.404   1_545  A
C898        C899   1.399       .  A
C898        H907   1.082       .  S
C899        C900   1.402       .  A
C899        H908   1.084       .  S
C900        C906   1.410   1_545  A
C900        C901   1.417   1_545  A
C901        C903   1.401       .  A
C901        C902   1.409       .  A
C902        H909   1.085       .  S
C903        C904   1.397       .  A
C903        H910   1.084       .  S
C904        C905   1.406       .  A
C904        H911   1.082       .  S
C905        C906   1.404       .  A
C906        H912   1.084       .  S
C913        C914   1.402       .  A
C913        C918   1.396       .  A
C914        C915   1.400       .  A
C914        H923   1.082       .  S
C915        C916   1.404       .  A
C915        H924   1.083       .  S
C916        C922   1.408       .  A
C916        C917   1.417       .  A
C917        C919   1.396       .  A
C917        C918   1.399       .  A
C918        H925   1.085       .  S
C919        C920   1.390       .  A
C919        H926   1.084       .  S
C920        C921   1.407       .  A
C920        H927   1.084       .  S
C921        C922   1.405       .  A
C922        H928   1.084       .  S
C929        C930   1.408       .  A
C929        C934   1.406       .  A
C930        C931   1.402       .  A
C930        H939   1.083       .  S
C931        C932   1.403       .  A
C931        H940   1.083       .  S
C932        C938   1.411       .  A
C932        C933   1.414       .  A
C933        C935   1.399       .  A
C933        C934   1.404       .  A
C934        H941   1.084       .  S
C935        C936   1.394       .  A
C935        H942   1.084       .  S
C936        C937   1.407       .  A
C936        H943   1.083       .  S
C937        C938   1.408       .  A
C938        H944   1.084       .  S
C945        C946   1.403       .  A
C945        C950   1.403   1_545  A
C946        C947   1.404       .  A
C946        H955   1.083       .  S
C947        C948   1.406   1_545  A
C947        H956   1.083       .  S
C948        C954   1.414       .  A
C948        C949   1.416       .  A
C949        C951   1.400       .  A
C949        C950   1.405       .  A
C950        H957   1.085       .  S
C951        C952   1.395       .  A
C951        H958   1.084       .  S
C952        C953   1.406       .  A
C952        H959   1.084       .  S
C953        C954   1.409       .  A
C954        H960   1.084   1_565  S
C961        C962   1.404       .  A
C961        C966   1.403       .  A
C962        C963   1.395       .  A
C962        H971   1.083       .  S
C963        C964   1.401       .  A
C963        H972   1.084       .  S
C964        C970   1.400       .  A
C964        C965   1.414       .  A
C965        C967   1.401       .  A
C965        C966   1.399       .  A
C966        H973   1.084       .  S
C967        C968   1.395       .  A
C967        H974   1.084       .  S
C968        C969   1.403       .  A
C968        H975   1.083       .  S
C969        C970   1.403       .  A
C970        H976   1.085       .  S
C977        C978   1.400       .  A
C977        C982   1.403       .  A
C978        C979   1.393       .  A
C978        H987   1.084       .  S
C979        C980   1.401       .  A
C979        H988   1.084       .  S
C980        C986   1.396       .  A
C980        C981   1.415       .  A
C981        C983   1.405       .  A
C981        C982   1.404       .  A
C982        H989   1.084       .  S
C983        C984   1.401       .  A
C983        H990   1.083       .  S
C984        C985   1.402       .  A
C984        H991   1.083       .  S
C985        C986   1.403       .  A
C986        H992   1.085       .  S
C993        C994   1.406       .  A
C993        C998   1.409       .  A
C994        C995   1.394       .  A
C994       H1003   1.083       .  S
C995        C996   1.399       .  A
C995       H1004   1.084       .  S
C996       C1002   1.403       .  A
C996        C997   1.416       .  A
C997        C999   1.407   1_565  A
C997        C998   1.414       .  A
C998       H1005   1.084       .  S
C999       C1000   1.405       .  A
C999       H1006   1.083       .  S
C1000      C1001   1.403       .  A
C1000      H1007   1.083       .  S
C1001      C1002   1.402   1_545  A
C1002      H1008   1.085       .  S
C1009      C1010   1.407       .  A
C1009      C1014   1.407       .  A
C1010      C1011   1.402       .  A
C1010      H1019   1.083       .  S
C1011      C1012   1.403       .  A
C1011      H1020   1.083       .  S
C1012      C1018   1.412       .  A
C1012      C1013   1.415       .  A
C1013      C1015   1.400       .  A
C1013      C1014   1.405       .  A
C1014      H1021   1.084       .  S
C1015      C1016   1.395       .  A
C1015      H1022   1.084       .  S
C1016      C1017   1.408       .  A
C1016      H1023   1.083       .  S
C1017      C1018   1.408       .  A
C1018      H1024   1.084       .  S
C1025      C1026   1.403       .  A
C1025      C1030   1.400       .  A
C1026      C1027   1.394       .  A
C1026      H1035   1.083       .  S
C1027      C1028   1.400       .  A
C1027      H1036   1.084       .  S
C1028      C1034   1.400       .  A
C1028      C1029   1.417       .  A
C1029      C1031   1.400       .  A
C1029      C1030   1.400       .  A
C1030      H1037   1.085       .  S
C1031      C1032   1.393       .  A
C1031      H1038   1.084       .  S
C1032      C1033   1.405       .  A
C1032      H1039   1.082       .  S
C1033      C1034   1.400       .  A
C1034      H1040   1.084       .  S
C1041      C1042   1.403       .  A
C1041      C1046   1.405       .  A
C1042      C1043   1.397       .  A
C1042      H1051   1.083       .  S
C1043      C1044   1.401       .  A
C1043      H1052   1.083       .  S
C1044      C1050   1.408       .  A
C1044      C1045   1.417   1_565  A
C1045      C1047   1.403       .  A
C1045      C1046   1.410   1_545  A
C1046      H1053   1.084   1_565  S
C1047      C1048   1.399       .  A
C1047      H1054   1.083       .  S
C1048      C1049   1.402       .  A
C1048      H1055   1.082       .  S
C1049      C1050   1.402   1_545  A
C1050      H1056   1.084       .  S
C1057      C1058   1.404       .  A
C1057      C1062   1.403   1_655  A
C1058      C1059   1.406       .  A
C1058      H1067   1.083       .  S
C1059      C1060   1.408   1_655  A
C1059      H1068   1.083       .  S
C1060      C1066   1.414       .  A
C1060      C1061   1.415       .  A
C1061      C1063   1.400       .  A
C1061      C1062   1.405       .  A
C1062      H1069   1.085       .  S
C1063      C1064   1.395       .  A
C1063      H1070   1.084       .  S
C1064      C1065   1.406       .  A
C1064      H1071   1.084       .  S
C1065      C1066   1.411       .  A
C1066      H1072   1.084       .  S
C1073      C1074   1.401       .  A
C1073      C1078   1.401       .  A
C1074      C1075   1.403       .  A
C1074      H1083   1.083       .  S
C1075      C1076   1.407       .  A
C1075      H1084   1.083       .  S
C1076      C1082   1.407       .  A
C1076      C1077   1.414       .  A
C1077      C1079   1.402       .  A
C1077      C1078   1.399       .  A
C1078      H1085   1.083       .  S
C1079      C1080   1.395       .  A
C1079      H1086   1.084       .  S
C1080      C1081   1.402       .  A
C1080      H1087   1.084       .  S
C1081      C1082   1.406       .  A
C1082      H1088   1.085       .  S
C1089      C1090   1.408       .  A
C1089      C1094   1.402       .  A
C1090      C1091   1.396       .  A
C1090      H1099   1.083       .  S
C1091      C1092   1.399       .  A
C1091      H1100   1.084       .  S
C1092      C1098   1.406       .  A
C1092      C1093   1.417       .  A
C1093      C1095   1.398       .  A
C1093      C1094   1.403       .  A
C1094      H1101   1.084       .  S
C1095      C1096   1.392   1_655  A
C1095      H1102   1.084       .  S
C1096      C1097   1.407       .  A
C1096      H1103   1.084       .  S
C1097      C1098   1.402   1_455  A
C1098      H1104   1.084       .  S
C1105      C1106   1.407       .  A
C1105      C1110   1.405       .  A
C1106      C1107   1.394       .  A
C1106      H1115   1.083       .  S
C1107      C1108   1.399       .  A
C1107      H1116   1.084       .  S
C1108      C1114   1.401       .  A
C1108      C1109   1.415       .  A
C1109      C1111   1.402       .  A
C1109      C1110   1.404       .  A
C1110      H1117   1.084       .  S
C1111      C1112   1.397       .  A
C1111      H1118   1.084       .  S
C1112      C1113   1.404       .  A
C1112      H1119   1.083       .  S
C1113      C1114   1.402       .  A
C1114      H1120   1.085       .  S
C1121      C1122   1.407       .  A
C1121      C1126   1.405       .  A
C1122      C1123   1.399       .  A
C1122      H1131   1.083       .  S
C1123      C1124   1.402       .  A
C1123      H1132   1.084       .  S
C1124      C1130   1.406       .  A
C1124      C1125   1.415       .  A
C1125      C1127   1.400       .  A
C1125      C1126   1.401       .  A
C1126      H1133   1.084   1_655  S
C1127      C1128   1.394       .  A
C1127      H1134   1.084       .  S
C1128      C1129   1.404       .  A
C1128      H1135   1.084       .  S
C1129      C1130   1.404       .  A
C1130      H1136   1.084       .  S
C1137      C1138   1.409       .  A
C1137      C1142   1.402       .  A
C1138      C1139   1.400       .  A
C1138      H1147   1.083       .  S
C1139      C1140   1.402       .  A
C1139      H1148   1.084       .  S
C1140      C1146   1.411       .  A
C1140      C1141   1.416       .  A
C1141      C1143   1.396       .  A
C1141      C1142   1.403       .  A
C1142      H1149   1.085       .  S
C1143      C1144   1.391       .  A
C1143      H1150   1.084       .  S
C1144      C1145   1.411       .  A
C1144      H1151   1.083   1_565  S
C1145      C1146   1.407       .  A
C1146      H1152   1.084       .  S
C1153      C1154   1.407       .  A
C1153      C1158   1.410       .  A
C1154      C1155   1.399       .  A
C1154      H1163   1.083       .  S
C1155      C1156   1.402       .  A
C1155      H1164   1.084       .  S
C1156      C1162   1.409       .  A
C1156      C1157   1.414       .  A
C1157      C1159   1.404       .  A
C1157      C1158   1.411       .  A
C1158      H1165   1.084       .  S
C1159      C1160   1.401       .  A
C1159      H1166   1.084       .  S
C1160      C1161   1.407       .  A
C1160      H1167   1.083       .  S
C1161      C1162   1.408       .  A
C1162      H1168   1.084       .  S
C1169      C1170   1.402   1_455  A
C1169      C1174   1.405       .  A
C1170      C1171   1.402       .  A
C1170      H1179   1.083       .  S
C1171      C1172   1.405       .  A
C1171      H1180   1.084       .  S
C1172      C1178   1.409       .  A
C1172      C1173   1.415   1_655  A
C1173      C1175   1.404       .  A
C1173      C1174   1.408       .  A
C1174      H1181   1.083       .  S
C1175      C1176   1.400       .  A
C1175      H1182   1.084       .  S
C1176      C1177   1.403   1_455  A
C1176      H1183   1.084       .  S
C1177      C1178   1.406       .  A
C1178      H1184   1.084       .  S
C1185      C1186   1.407       .  A
C1185      C1190   1.406       .  A
C1186      C1187   1.390       .  A
C1186      H1195   1.082       .  S
C1187      C1188   1.397       .  A
C1187      H1196   1.084       .  S
C1188      C1194   1.398       .  A
C1188      C1189   1.416       .  A
C1189      C1191   1.405       .  A
C1189      C1190   1.408       .  A
C1190      H1197   1.084       .  S
C1191      C1192   1.401       .  A
C1191      H1198   1.083       .  S
C1192      C1193   1.402       .  A
C1192      H1199   1.084       .  S
C1193      C1194   1.397       .  A
C1194      H1200   1.085       .  S
C1201      C1202   1.402       .  A
C1201      C1206   1.402       .  A
C1202      C1203   1.397       .  A
C1202      H1211   1.083       .  S
C1203      C1204   1.403       .  A
C1203      H1212   1.084       .  S
C1204      C1210   1.399       .  A
C1204      C1205   1.414       .  A
C1205      C1207   1.403       .  A
C1205      C1206   1.400       .  A
C1206      H1213   1.083       .  S
C1207      C1208   1.397       .  A
C1207      H1214   1.084       .  S
C1208      C1209   1.403       .  A
C1208      H1215   1.083       .  S
C1209      C1210   1.405       .  A
C1210      H1216   1.085       .  S
C1217      C1218   1.403       .  A
C1217      C1222   1.402   1_455  A
C1218      C1219   1.405       .  A
C1218      H1227   1.083       .  S
C1219      C1220   1.407   1_455  A
C1219      H1228   1.083       .  S
C1220      C1226   1.412       .  A
C1220      C1221   1.416       .  A
C1221      C1223   1.399       .  A
C1221      C1222   1.401       .  A
C1222      H1229   1.085       .  S
C1223      C1224   1.393       .  A
C1223      H1230   1.084       .  S
C1224      C1225   1.402       .  A
C1224      H1231   1.083       .  S
C1225      C1226   1.407       .  A
C1226      H1232   1.084       .  S
C1233      C1234   1.407       .  A
C1233      C1238   1.409       .  A
C1234      C1235   1.399       .  A
C1234      H1243   1.083       .  S
C1235      C1236   1.403       .  A
C1235      H1244   1.084       .  S
C1236      C1242   1.408       .  A
C1236      C1237   1.413       .  A
C1237      C1239   1.402       .  A
C1237      C1238   1.408       .  A
C1238      H1245   1.084       .  S
C1239      C1240   1.399       .  A
C1239      H1246   1.084       .  S
C1240      C1241   1.407       .  A
C1240      H1247   1.083       .  S
C1241      C1242   1.410       .  A
C1242      H1248   1.084       .  S
C1249      C1250   1.405       .  A
C1249      C1254   1.411       .  A
C1250      C1251   1.395       .  A
C1250      H1259   1.084       .  S
C1251      C1252   1.400       .  A
C1251      H1260   1.084       .  S
C1252      C1258   1.405       .  A
C1252      C1253   1.414       .  A
C1253      C1255   1.406       .  A
C1253      C1254   1.415       .  A
C1254      H1261   1.084       .  S
C1255      C1256   1.406       .  A
C1255      H1262   1.083       .  S
C1256      C1257   1.407   1_545  A
C1256      H1263   1.083       .  S
C1257      C1258   1.407   1_565  A
C1258      H1264   1.085   1_545  S
C1265      C1266   1.405       .  A
C1265      C1270   1.409       .  A
C1266      C1267   1.403       .  A
C1266      H1275   1.083       .  S
C1267      C1268   1.405       .  A
C1267      H1276   1.083       .  S
C1268      C1274   1.409       .  A
C1268      C1269   1.413       .  A
C1269      C1271   1.402       .  A
C1269      C1270   1.402       .  A
C1270      H1277   1.084       .  S
C1271      C1272   1.395       .  A
C1271      H1278   1.084       .  S
C1272      C1273   1.403       .  A
C1272      H1279   1.084       .  S
C1273      C1274   1.407       .  A
C1274      H1280   1.084       .  S
C1281      C1282   1.409       .  A
C1281      C1286   1.400       .  A
C1282      C1283   1.400       .  A
C1282      H1291   1.083       .  S
C1283      C1284   1.402       .  A
C1283      H1292   1.083       .  S
C1284      C1290   1.411       .  A
C1284      C1285   1.416       .  A
C1285      C1287   1.394       .  A
C1285      C1286   1.400       .  A
C1286      H1293   1.085       .  S
C1287      C1288   1.388       .  A
C1287      H1294   1.084       .  S
C1288      C1289   1.411       .  A
C1288      H1295   1.083   1_545  S
C1289      C1290   1.405       .  A
C1290      H1296   1.084       .  S
C1297      C1298   1.408       .  A
C1297      C1302   1.408       .  A
C1298      C1299   1.398       .  A
C1298      H1307   1.083       .  S
C1299      C1300   1.402       .  A
C1299      H1308   1.084       .  S
C1300      C1306   1.407       .  A
C1300      C1301   1.413       .  A
C1301      C1303   1.402       .  A
C1301      C1302   1.407       .  A
C1302      H1309   1.084       .  S
C1303      C1304   1.398       .  A
C1303      H1310   1.084       .  S
C1304      C1305   1.407       .  A
C1304      H1311   1.083       .  S
C1305      C1306   1.408       .  A
C1306      H1312   1.084       .  S
C1313      C1314   1.402       .  A
C1313      C1318   1.403   1_655  A
C1314      C1315   1.401       .  A
C1314      H1323   1.083       .  S
C1315      C1316   1.404   1_655  A
C1315      H1324   1.083       .  S
C1316      C1322   1.411       .  A
C1316      C1317   1.416       .  A
C1317      C1319   1.402       .  A
C1317      C1318   1.409       .  A
C1318      H1325   1.084       .  S
C1319      C1320   1.398       .  A
C1319      H1326   1.084       .  S
C1320      C1321   1.404       .  A
C1320      H1327   1.083       .  S
C1321      C1322   1.406       .  A
C1322      H1328   1.084   1_455  S
C1329      C1330   1.403       .  A
C1329      C1334   1.399       .  A
C1330      C1331   1.395       .  A
C1330      H1339   1.082       .  S
C1331      C1332   1.401       .  A
C1331      H1340   1.083       .  S
C1332      C1338   1.403       .  A
C1332      C1333   1.417       .  A
C1333      C1335   1.398       .  A
C1333      C1334   1.400       .  A
C1334      H1341   1.085       .  S
C1335      C1336   1.392       .  A
C1335      H1342   1.084       .  S
C1336      C1337   1.405       .  A
C1336      H1343   1.081       .  S
C1337      C1338   1.402       .  A
C1338      H1344   1.084       .  S
C1345      C1346   1.405       .  A
C1345      C1350   1.405       .  A
C1346      C1347   1.407       .  A
C1346      H1355   1.083       .  S
C1347      C1348   1.407       .  A
C1347      H1356   1.083       .  S
C1348      C1354   1.416       .  A
C1348      C1349   1.415       .  A
C1349      C1351   1.400       .  A
C1349      C1350   1.404       .  A
C1350      H1357   1.085       .  S
C1351      C1352   1.394       .  A
C1351      H1358   1.084       .  S
C1352      C1353   1.403       .  A
C1352      H1359   1.084       .  S
C1353      C1354   1.409       .  A
C1354      H1360   1.084       .  S
C1361      C1362   1.403       .  A
C1361      C1366   1.409       .  A
C1362      C1363   1.391       .  A
C1362      H1371   1.084       .  S
C1363      C1364   1.398       .  A
C1363      H1372   1.084       .  S
C1364      C1370   1.400       .  A
C1364      C1365   1.416       .  A
C1365      C1367   1.408       .  A
C1365      C1366   1.414       .  A
C1366      H1373   1.084       .  S
C1367      C1368   1.406       .  A
C1367      H1374   1.083       .  S
C1368      C1369   1.404       .  A
C1368      H1375   1.083       .  S
C1369      C1370   1.400       .  A
C1370      H1376   1.085       .  S
C1377      C1378   1.407       .  A
C1377      C1382   1.409       .  A
C1378      C1379   1.396       .  A
C1378      H1387   1.083       .  S
C1379      C1380   1.400       .  A
C1379      H1388   1.084       .  S
C1380      C1386   1.405       .  A
C1380      C1381   1.414       .  A
C1381      C1383   1.403       .  A
C1381      C1382   1.409       .  A
C1382      H1389   1.084       .  S
C1383      C1384   1.401       .  A
C1383      H1390   1.084       .  S
C1384      C1385   1.407       .  A
C1384      H1391   1.083       .  S
C1385      C1386   1.406       .  A
C1386      H1392   1.084       .  S
C1393      C1394   1.405       .  A
C1393      C1398   1.404       .  A
C1394      C1395   1.398       .  A
C1394      H1403   1.083       .  S
C1395      C1396   1.402       .  A
C1395      H1404   1.084       .  S
C1396      C1402   1.404       .  A
C1396      C1397   1.416       .  A
C1397      C1399   1.401       .  A
C1397      C1398   1.400       .  A
C1398      H1405   1.085       .  S
C1399      C1400   1.394       .  A
C1399      H1406   1.084       .  S
C1400      C1401   1.401       .  A
C1400      H1407   1.084       .  S
C1401      C1402   1.401       .  A
C1402      H1408   1.084       .  S
C1409      C1410   1.405       .  A
C1409      C1414   1.404       .  A
C1410      C1411   1.400       .  A
C1410      H1419   1.083       .  S
C1411      C1412   1.404       .  A
C1411      H1420   1.084       .  S
C1412      C1418   1.406       .  A
C1412      C1413   1.414       .  A
C1413      C1415   1.399       .  A
C1413      C1414   1.400       .  A
C1414      H1421   1.085       .  S
C1415      C1416   1.394       .  A
C1415      H1422   1.084       .  S
C1416      C1417   1.407       .  A
C1416      H1423   1.083       .  S
C1417      C1418   1.408       .  A
C1418      H1424   1.084       .  S
C1425      C1426   1.405       .  A
C1425      C1430   1.406       .  A
C1426      C1427   1.404       .  A
C1426      H1435   1.083       .  S
C1427      C1428   1.406       .  A
C1427      H1436   1.083       .  S
C1428      C1434   1.411       .  A
C1428      C1429   1.415       .  A
C1429      C1431   1.401       .  A
C1429      C1430   1.402       .  A
C1430      H1437   1.085       .  S
C1431      C1432   1.394       .  A
C1431      H1438   1.084       .  S
C1432      C1433   1.401       .  A
C1432      H1439   1.084       .  S
C1433      C1434   1.406       .  A
C1434      H1440   1.084       .  S
C1441      C1442   1.409       .  A
C1441      C1446   1.407       .  A
C1442      C1443   1.393       .  A
C1442      H1451   1.083       .  S
C1443      C1444   1.397       .  A
C1443      H1452   1.084       .  S
C1444      C1450   1.404       .  A
C1444      C1445   1.416       .  A
C1445      C1447   1.404       .  A
C1445      C1446   1.411       .  A
C1446      H1453   1.084       .  S
C1447      C1448   1.401       .  A
C1447      H1454   1.083       .  S
C1448      C1449   1.405       .  A
C1448      H1455   1.083       .  S
C1449      C1450   1.400       .  A
C1450      H1456   1.085       .  S
C1457      C1458   1.408       .  A
C1457      C1462   1.405       .  A
C1458      C1459   1.399       .  A
C1458      H1467   1.083       .  S
C1459      C1460   1.401       .  A
C1459      H1468   1.083       .  S
C1460      C1466   1.408       .  A
C1460      C1461   1.416       .  A
C1461      C1463   1.399       .  A
C1461      C1462   1.403       .  A
C1462      H1469   1.084       .  S
C1463      C1464   1.394       .  A
C1463      H1470   1.084       .  S
C1464      C1465   1.406       .  A
C1464      H1471   1.084       .  S
C1465      C1466   1.403       .  A
C1466      H1472   1.084       .  S
C1473      C1474   1.405       .  A
C1473      C1478   1.406       .  A
C1474      C1475   1.406       .  A
C1474      H1483   1.083       .  S
C1475      C1476   1.407       .  A
C1475      H1484   1.083       .  S
C1476      C1482   1.414       .  A
C1476      C1477   1.415       .  A
C1477      C1479   1.399       .  A
C1477      C1478   1.401       .  A
C1478      H1485   1.085       .  S
C1479      C1480   1.392       .  A
C1479      H1486   1.084       .  S
C1480      C1481   1.403       .  A
C1480      H1487   1.084       .  S
C1481      C1482   1.408       .  A
C1482      H1488   1.084       .  S
C1489      C1490   1.407       .  A
C1489      C1494   1.414       .  A
C1490      C1491   1.395       .  A
C1490      H1499   1.083       .  S
C1491      C1492   1.400       .  A
C1491      H1500   1.084       .  S
C1492      C1498   1.403       .  A
C1492      C1493   1.413       .  A
C1493      C1495   1.408       .  A
C1493      C1494   1.413       .  A
C1494      H1501   1.084       .  S
C1495      C1496   1.406       .  A
C1495      H1502   1.083       .  S
C1496      C1497   1.405       .  A
C1496      H1503   1.083       .  S
C1497      C1498   1.406       .  A
C1498      H1504   1.085       .  S
C1505      C1506   1.405       .  A
C1505      C1510   1.408       .  A
C1506      C1507   1.391       .  A
C1506      H1515   1.084       .  S
C1507      C1508   1.398       .  A
C1507      H1516   1.084       .  S
C1508      C1514   1.401       .  A
C1508      C1509   1.415       .  A
C1509      C1511   1.406       .  A
C1509      C1510   1.415       .  A
C1510      H1517   1.084       .  S
C1511      C1512   1.406       .  A
C1511      H1518   1.083       .  S
C1512      C1513   1.407       .  A
C1512      H1519   1.083       .  S
C1513      C1514   1.405       .  A
C1514      H1520   1.085       .  S
C1521      C1522   1.402       .  A
C1521      C1526   1.403       .  A
C1522      C1523   1.394       .  A
C1522      H1531   1.084       .  S
C1523      C1524   1.401       .  A
C1523      H1532   1.084       .  S
C1524      C1530   1.401       .  A
C1524      C1525   1.415       .  A
C1525      C1527   1.402       .  A
C1525      C1526   1.405       .  A
C1526      H1533   1.085       .  S
C1527      C1528   1.399       .  A
C1527      H1534   1.084       .  S
C1528      C1529   1.407       .  A
C1528      H1535   1.083       .  S
C1529      C1530   1.405       .  A
C1530      H1536   1.084       .  S
C1537      C1538   1.406       .  A
C1537      C1542   1.403       .  A
C1538      C1539   1.396       .  A
C1538      H1547   1.083       .  S
C1539      C1540   1.401       .  A
C1539      H1548   1.084       .  S
C1540      C1546   1.402       .  A
C1540      C1541   1.415       .  A
C1541      C1543   1.399       .  A
C1541      C1542   1.400       .  A
C1542      H1549   1.084       .  S
C1543      C1544   1.394       .  A
C1543      H1550   1.084       .  S
C1544      C1545   1.407       .  A
C1544      H1551   1.083       .  S
C1545      C1546   1.404       .  A
C1546      H1552   1.084       .  S
C1553      C1554   1.407       .  A
C1553      C1558   1.408       .  A
C1554      C1555   1.391       .  A
C1554      H1563   1.084       .  S
C1555      C1556   1.397       .  A
C1555      H1564   1.084       .  S
C1556      C1562   1.402       .  A
C1556      C1557   1.416       .  A
C1557      C1559   1.406       .  A
C1557      C1558   1.414       .  A
C1558      H1565   1.084       .  S
C1559      C1560   1.404       .  A
C1559      H1566   1.083       .  S
C1560      C1561   1.405       .  A
C1560      H1567   1.083       .  S
C1561      C1562   1.401       .  A
C1562      H1568   1.085       .  S
C1569      C1570   1.406       .  A
C1569      C1574   1.408       .  A
C1570      C1571   1.396       .  A
C1570      H1579   1.083       .  S
C1571      C1572   1.401       .  A
C1571      H1580   1.084       .  S
C1572      C1578   1.403       .  A
C1572      C1573   1.413       .  A
C1573      C1575   1.403       .  A
C1573      C1574   1.406       .  A
C1574      H1581   1.084       .  S
C1575      C1576   1.399       .  A
C1575      H1582   1.084       .  S
C1576      C1577   1.406       .  A
C1576      H1583   1.083       .  S
C1577      C1578   1.407       .  A
C1578      H1584   1.084       .  S
C1585      C1586   1.409       .  A
C1585      C1590   1.410       .  A
C1586      C1587   1.390       .  A
C1586      H1595   1.083       .  S
C1587      C1588   1.396       .  A
C1587      H1596   1.084       .  S
C1588      C1594   1.402       .  A
C1588      C1589   1.415       .  A
C1589      C1591   1.406       .  A
C1589      C1590   1.416       .  A
C1590      H1597   1.084       .  S
C1591      C1592   1.406       .  A
C1591      H1598   1.083       .  S
C1592      C1593   1.408       .  A
C1592      H1599   1.083       .  S
C1593      C1594   1.404       .  A
C1594      H1600   1.085       .  S
C1601      C1602   1.408       .  A
C1601      C1606   1.406       .  A
C1602      C1603   1.408       .  A
C1602      H1611   1.083       .  S
C1603      C1604   1.407       .  A
C1603      H1612   1.083       .  S
C1604      C1610   1.417       .  A
C1604      C1605   1.414       .  A
C1605      C1607   1.398       .  A
C1605      C1606   1.403       .  A
C1606      H1613   1.085       .  S
C1607      C1608   1.392       .  A
C1607      H1614   1.084       .  S
C1608      C1609   1.406       .  A
C1608      H1615   1.084       .  S
C1609      C1610   1.412       .  A
C1610      H1616   1.084       .  S
C1617      C1618   1.403       .  A
C1617      C1622   1.411       .  A
C1618      C1619   1.396       .  A
C1618      H1627   1.083       .  S
C1619      C1620   1.402       .  A
C1619      H1628   1.084       .  S
C1620      C1626   1.405       .  A
C1620      C1621   1.413       .  A
C1621      C1623   1.407       .  A
C1621      C1622   1.414       .  A
C1622      H1629   1.084       .  S
C1623      C1624   1.406       .  A
C1623      H1630   1.084       .  S
C1624      C1625   1.408       .  A
C1624      H1631   1.083       .  S
C1625      C1626   1.409       .  A
C1626      H1632   1.084       .  S
C1633      C1634   1.408       .  A
C1633      C1638   1.405       .  A
C1634      C1635   1.399       .  A
C1634      H1643   1.083       .  S
C1635      C1636   1.402       .  A
C1635      H1644   1.084       .  S
C1636      C1642   1.410       .  A
C1636      C1637   1.415       .  A
C1637      C1639   1.399       .  A
C1637      C1638   1.407       .  A
C1638      H1645   1.084       .  S
C1639      C1640   1.395       .  A
C1639      H1646   1.084       .  S
C1640      C1641   1.409       .  A
C1640      H1647   1.083       .  S
C1641      C1642   1.408       .  A
C1642      H1648   1.084       .  S
C1649      C1650   1.408       .  A
C1649      C1654   1.403       .  A
C1650      C1651   1.393       .  A
C1650      H1659   1.083       .  S
C1651      C1652   1.398       .  A
C1651      H1660   1.084       .  S
C1652      C1658   1.400       .  A
C1652      C1653   1.415       .  A
C1653      C1655   1.399       .  A
C1653      C1654   1.402       .  A
C1654      H1661   1.084       .  S
C1655      C1656   1.394       .  A
C1655      H1662   1.084       .  S
C1656      C1657   1.408       .  A
C1656      H1663   1.083       .  S
C1657      C1658   1.402       .  A
C1658      H1664   1.084       .  S
C1665      C1666   1.405       .  A
C1665      C1670   1.410       .  A
C1666      C1667   1.396       .  A
C1666      H1675   1.084       .  S
C1667      C1668   1.400       .  A
C1667      H1676   1.084       .  S
C1668      C1674   1.407       .  A
C1668      C1669   1.415       .  A
C1669      C1671   1.407       .  A
C1669      C1670   1.416       .  A
C1670      H1677   1.084       .  S
C1671      C1672   1.406       .  A
C1671      H1678   1.083       .  S
C1672      C1673   1.405       .  A
C1672      H1679   1.083       .  S
C1673      C1674   1.405       .  A
C1674      H1680   1.085       .  S
C1681      C1682   1.404       .  A
C1681      C1686   1.403       .  A
C1682      C1683   1.393       .  A
C1682      H1691   1.084       .  S
C1683      C1684   1.399       .  A
C1683      H1692   1.084       .  S
C1684      C1690   1.403       .  A
C1684      C1685   1.416       .  A
C1685      C1687   1.402       .  A
C1685      C1686   1.409       .  A
C1686      H1693   1.084       .  S
C1687      C1688   1.400       .  A
C1687      H1694   1.083       .  S
C1688      C1689   1.407       .  A
C1688      H1695   1.083       .  S
C1689      C1690   1.405       .  A
C1690      H1696   1.084       .  S
C1697      C1698   1.407       .  A
C1697      C1702   1.405       .  A
C1698      C1699   1.391       .  A
C1698      H1707   1.084       .  S
C1699      C1700   1.397       .  A
C1699      H1708   1.084       .  S
C1700      C1706   1.401       .  A
C1700      C1701   1.417       .  A
C1701      C1703   1.404       .  A
C1701      C1702   1.410       .  A
C1702      H1709   1.084       .  S
C1703      C1704   1.401       .  A
C1703      H1710   1.083       .  S
C1704      C1705   1.403       .  A
C1704      H1711   1.084       .  S
C1705      C1706   1.399       .  A
C1706      H1712   1.085       .  S
C1713      C1714   1.407       .  A
C1713      C1718   1.404       .  A
C1714      C1715   1.404       .  A
C1714      H1723   1.083       .  S
C1715      C1716   1.405       .  A
C1715      H1724   1.083       .  S
C1716      C1722   1.413       .  A
C1716      C1717   1.415       .  A
C1717      C1719   1.397       .  A
C1717      C1718   1.401       .  A
C1718      H1725   1.085       .  S
C1719      C1720   1.391       .  A
C1719      H1726   1.084       .  S
C1720      C1721   1.408       .  A
C1720      H1727   1.084       .  S
C1721      C1722   1.407       .  A
C1722      H1728   1.084       .  S
C1729      C1730   1.410       .  A
C1729      C1734   1.403       .  A
C1730      C1731   1.399       .  A
C1730      H1739   1.083       .  S
C1731      C1732   1.401   1_554  A
C1731      H1740   1.084   1_554  S
C1732      C1738   1.410       .  A
C1732      C1733   1.416   1_556  A
C1733      C1735   1.396   1_554  A
C1733      C1734   1.403       .  A
C1734      H1741   1.084       .  S
C1735      C1736   1.392       .  A
C1735      H1742   1.084       .  S
C1736      C1737   1.410       .  A
C1736      H1743   1.083       .  S
C1737      C1738   1.407       .  A
C1738      H1744   1.084       .  S
C1745      C1746   1.406       .  A
C1745      C1750   1.402       .  A
C1746      C1747   1.413       .  A
C1746      H1755   1.083       .  S
C1747      C1748   1.411       .  A
C1747      H1756   1.083       .  S
C1748      C1754   1.424       .  A
C1748      C1749   1.415       .  A
C1749      C1751   1.394       .  A
C1749      C1750   1.399       .  A
C1750      H1757   1.086       .  S
C1751      C1752   1.386       .  A
C1751      H1758   1.084       .  S
C1752      C1753   1.405       .  A
C1752      H1759   1.081       .  S
C1753      C1754   1.414       .  A
C1754      H1760   1.083       .  S
C1761      C1762   1.403       .  A
C1761      C1766   1.399       .  A
C1762      C1763   1.395       .  A
C1762      H1771   1.082       .  S
C1763      C1764   1.401       .  A
C1763      H1772   1.084       .  S
C1764      C1770   1.404       .  A
C1764      C1765   1.418       .  A
C1765      C1767   1.399       .  A
C1765      C1766   1.402       .  A
C1766      H1773   1.085       .  S
C1767      C1768   1.393       .  A
C1767      H1774   1.084       .  S
C1768      C1769   1.404       .  A
C1768      H1775   1.084       .  S
C1769      C1770   1.400       .  A
C1770      H1776   1.085       .  S
C1777      C1778   1.405       .  A
C1777      C1782   1.404       .  A
C1778      C1779   1.406       .  A
C1778      H1787   1.083       .  S
C1779      C1780   1.407       .  A
C1779      H1788   1.083       .  S
C1780      C1786   1.415       .  A
C1780      C1781   1.415       .  A
C1781      C1783   1.399       .  A
C1781      C1782   1.403       .  A
C1782      H1789   1.085       .  S
C1783      C1784   1.393       .  A
C1783      H1790   1.084       .  S
C1784      C1785   1.404       .  A
C1784      H1791   1.084       .  S
C1785      C1786   1.408       .  A
C1786      H1792   1.084       .  S
C1793      C1794   1.402       .  A
C1793      C1798   1.403       .  A
C1794      C1795   1.395       .  A
C1794      H1803   1.084       .  S
C1795      C1796   1.402       .  A
C1795      H1804   1.084       .  S
C1796      C1802   1.398       .  A
C1796      C1797   1.414       .  A
C1797      C1799   1.403       .  A
C1797      C1798   1.400       .  A
C1798      H1805   1.085       .  S
C1799      C1800   1.396       .  A
C1799      H1806   1.084       .  S
C1800      C1801   1.403       .  A
C1800      H1807   1.083       .  S
C1801      C1802   1.403       .  A
C1802      H1808   1.085       .  S
C1809      C1810   1.402       .  A
C1809      C1814   1.401       .  A
C1810      C1811   1.398       .  A
C1810      H1819   1.084       .  S
C1811      C1812   1.403       .  A
C1811      H1820   1.084       .  S
C1812      C1818   1.406       .  A
C1812      C1813   1.417       .  A
C1813      C1815   1.401       .  A
C1813      C1814   1.405       .  A
C1814      H1821   1.085       .  S
C1815      C1816   1.396       .  A
C1815      H1822   1.084       .  S
C1816      C1817   1.404       .  A
C1816      H1823   1.084       .  S
C1817      C1818   1.404       .  A
C1818      H1824   1.085       .  S
C1825      C1826   1.406       .  A
C1825      C1830   1.404       .  A
C1826      C1827   1.404       .  A
C1826      H1835   1.083       .  S
C1827      C1828   1.405       .  A
C1827      H1836   1.083       .  S
C1828      C1834   1.413       .  A
C1828      C1829   1.414       .  A
C1829      C1831   1.398       .  A
C1829      C1830   1.403       .  A
C1830      H1837   1.085       .  S
C1831      C1832   1.393       .  A
C1831      H1838   1.084       .  S
C1832      C1833   1.409       .  A
C1832      H1839   1.083       .  S
C1833      C1834   1.410       .  A
C1834      H1840   1.084       .  S
C1841      C1842   1.406       .  A
C1841      C1846   1.415       .  A
C1842      C1843   1.394       .  A
C1842      H1851   1.084       .  S
C1843      C1844   1.399       .  A
C1843      H1852   1.084       .  S
C1844      C1850   1.406       .  A
C1844      C1845   1.414       .  A
C1845      C1847   1.410       .  A
C1845      C1846   1.421       .  A
C1846      H1853   1.084       .  S
C1847      C1848   1.411       .  A
C1847      H1854   1.083       .  S
C1848      C1849   1.406       .  A
C1848      H1855   1.083       .  S
C1849      C1850   1.407       .  A
C1850      H1856   1.085       .  S
C1857      C1858   1.410       .  A
C1857      C1862   1.409       .  A
C1858      C1859   1.397       .  A
C1858      H1867   1.083       .  S
C1859      C1860   1.399       .  A
C1859      H1868   1.084       .  S
C1860      C1866   1.408       .  A
C1860      C1861   1.415       .  A
C1861      C1863   1.404       .  A
C1861      C1862   1.412       .  A
C1862      H1869   1.084       .  S
C1863      C1864   1.402       .  A
C1863      H1870   1.083       .  S
C1864      C1865   1.406       .  A
C1864      H1871   1.083       .  S
C1865      C1866   1.405       .  A
C1866      H1872   1.085       .  S
C1873      C1874   1.408       .  A
C1873      C1878   1.405       .  A
C1874      C1875   1.395       .  A
C1874      H1883   1.083       .  S
C1875      C1876   1.399       .  A
C1875      H1884   1.084       .  S
C1876      C1882   1.405   1_556  A
C1876      C1877   1.415       .  A
C1877      C1879   1.399   1_556  A
C1877      C1878   1.405       .  A
C1878      H1885   1.084       .  S
C1879      C1880   1.395       .  A
C1879      H1886   1.084   1_554  S
C1880      C1881   1.408       .  A
C1880      H1887   1.083       .  S
C1881      C1882   1.405       .  A
C1882      H1888   1.084       .  S
C1889      C1890   1.402       .  A
C1889      C1894   1.402       .  A
C1890      C1891   1.392       .  A
C1890      H1899   1.084       .  S
C1891      C1892   1.400       .  A
C1891      H1900   1.084       .  S
C1892      C1898   1.396       .  A
C1892      C1893   1.416       .  A
C1893      C1895   1.402       .  A
C1893      C1894   1.400       .  A
C1894      H1901   1.085       .  S
C1895      C1896   1.396       .  A
C1895      H1902   1.084       .  S
C1896      C1897   1.403       .  A
C1896      H1903   1.084       .  S
C1897      C1898   1.398       .  A
C1898      H1904   1.085       .  S
C1905      C1906   1.405       .  A
C1905      C1910   1.404       .  A
C1906      C1907   1.408       .  A
C1906      H1915   1.083       .  S
C1907      C1908   1.408       .  A
C1907      H1916   1.083       .  S
C1908      C1914   1.417       .  A
C1908      C1909   1.415       .  A
C1909      C1911   1.397       .  A
C1909      C1910   1.401       .  A
C1910      H1917   1.085       .  S
C1911      C1912   1.391       .  A
C1911      H1918   1.084       .  S
C1912      C1913   1.406       .  A
C1912      H1919   1.084       .  S
C1913      C1914   1.410       .  A
C1914      H1920   1.084       .  S
C1921      C1922   1.405       .  A
C1921      C1926   1.410       .  A
C1922      C1923   1.393       .  A
C1922      H1931   1.084       .  S
C1923      C1924   1.399       .  A
C1923      H1932   1.084       .  S
C1924      C1930   1.404       .  A
C1924      C1925   1.415       .  A
C1925      C1927   1.407       .  A
C1925      C1926   1.416       .  A
C1926      H1933   1.084       .  S
C1927      C1928   1.406       .  A
C1927      H1934   1.083       .  S
C1928      C1929   1.407       .  A
C1928      H1935   1.083       .  S
C1929      C1930   1.405       .  A
C1930      H1936   1.085       .  S
C1937      C1938   1.402       .  A
C1937      C1942   1.402       .  A
C1938      C1939   1.398       .  A
C1938      H1947   1.084       .  S
C1939      C1940   1.403       .  A
C1939      H1948   1.084       .  S
C1940      C1946   1.401       .  A
C1940      C1941   1.415       .  A
C1941      C1943   1.403       .  A
C1941      C1942   1.399       .  A
C1942      H1949   1.085       .  S
C1943      C1944   1.396       .  A
C1943      H1950   1.084       .  S
C1944      C1945   1.400       .  A
C1944      H1951   1.084       .  S
C1945      C1946   1.402       .  A
C1946      H1952   1.085       .  S
C1953      C1954   1.401       .  A
C1953      C1958   1.403       .  A
C1954      C1955   1.394       .  A
C1954      H1963   1.084       .  S
C1955      C1956   1.401       .  A
C1955      H1964   1.084       .  S
C1956      C1962   1.402       .  A
C1956      C1957   1.416       .  A
C1957      C1959   1.405       .  A
C1957      C1958   1.406       .  A
C1958      H1965   1.084       .  S
C1959      C1960   1.400       .  A
C1959      H1966   1.083       .  S
C1960      C1961   1.401       .  A
C1960      H1967   1.083       .  S
C1961      C1962   1.401       .  A
C1962      H1968   1.085       .  S
C1969      C1970   1.405       .  A
C1969      C1974   1.401       .  A
C1970      C1971   1.404       .  A
C1970      H1979   1.083       .  S
C1971      C1972   1.406       .  A
C1971      H1980   1.083       .  S
C1972      C1978   1.413       .  A
C1972      C1973   1.415       .  A
C1973      C1975   1.396       .  A
C1973      C1974   1.400       .  A
C1974      H1981   1.085       .  S
C1975      C1976   1.390       .  A
C1975      H1982   1.084       .  S
C1976      C1977   1.409       .  A
C1976      H1983   1.083       .  S
C1977      C1978   1.410       .  A
C1978      H1984   1.084       .  S
C1985      C1986   1.405       .  A
C1985      C1990   1.402       .  A
C1986      C1987   1.405       .  A
C1986      H1995   1.083       .  S
C1987      C1988   1.407       .  A
C1987      H1996   1.083       .  S
C1988      C1994   1.414       .  A
C1988      C1989   1.415       .  A
C1989      C1991   1.398       .  A
C1989      C1990   1.401       .  A
C1990      H1997   1.085       .  S
C1991      C1992   1.391       .  A
C1991      H1998   1.084       .  S
C1992      C1993   1.406       .  A
C1992      H1999   1.084       .  S
C1993      C1994   1.410       .  A
C1994      H2000   1.084       .  S
C2001      C2002   1.405       .  A
C2001      C2006   1.403       .  A
C2002      C2003   1.402       .  A
C2002      H2011   1.083       .  S
C2003      C2004   1.404       .  A
C2003      H2012   1.083       .  S
C2004      C2010   1.411       .  A
C2004      C2005   1.415       .  A
C2005      C2007   1.398       .  A
C2005      C2006   1.403       .  A
C2006      H2013   1.085       .  S
C2007      C2008   1.393       .  A
C2007      H2014   1.084       .  S
C2008      C2009   1.410       .  A
C2008      H2015   1.083       .  S
C2009      C2010   1.408       .  A
C2010      H2016   1.084       .  S
C2017      C2018   1.408       .  A
C2017      C2022   1.406       .  A
C2018      C2019   1.394       .  A
C2018      H2027   1.083       .  S
C2019      C2020   1.398   1_554  A
C2019      H2028   1.084   1_554  S
C2020      C2026   1.403       .  A
C2020      C2021   1.415   1_556  A
C2021      C2023   1.401   1_554  A
C2021      C2022   1.406       .  A
C2022      H2029   1.084       .  S
C2023      C2024   1.398       .  A
C2023      H2030   1.084       .  S
C2024      C2025   1.408       .  A
C2024      H2031   1.083       .  S
C2025      C2026   1.404       .  A
C2026      H2032   1.084       .  S
C2033      C2034   1.402       .  A
C2033      C2038   1.400       .  A
C2034      C2035   1.394       .  A
C2034      H2043   1.084       .  S
C2035      C2036   1.401       .  A
C2035      H2044   1.084       .  S
C2036      C2042   1.396       .  A
C2036      C2037   1.415       .  A
C2037      C2039   1.402       .  A
C2037      C2038   1.397       .  A
C2038      H2045   1.082       .  S
C2039      C2040   1.395       .  A
C2039      H2046   1.084       .  S
C2040      C2041   1.403       .  A
C2040      H2047   1.083       .  S
C2041      C2042   1.401       .  A
C2042      H2048   1.085       .  S
C2049      C2050   1.402       .  A
C2049      C2054   1.409       .  A
C2050      C2051   1.391       .  A
C2050      H2059   1.080       .  S
C2051      C2052   1.398       .  A
C2051      H2060   1.084       .  S
C2052      C2058   1.401       .  A
C2052      C2053   1.416       .  A
C2053      C2055   1.408       .  A
C2053      C2054   1.416       .  A
C2054      H2061   1.084       .  S
C2055      C2056   1.407       .  A
C2055      H2062   1.083       .  S
C2056      C2057   1.405       .  A
C2056      H2063   1.083       .  S
C2057      C2058   1.401       .  A
C2058      H2064   1.085       .  S
C2065      C2066   1.405       .  A
C2065      C2070   1.406       .  A
C2066      C2067   1.406       .  A
C2066      H2075   1.083       .  S
C2067      C2068   1.407       .  A
C2067      H2076   1.083       .  S
C2068      C2074   1.413       .  A
C2068      C2069   1.415       .  A
C2069      C2071   1.401       .  A
C2069      C2070   1.401       .  A
C2070      H2077   1.085       .  S
C2071      C2072   1.394       .  A
C2071      H2078   1.084       .  S
C2072      C2073   1.401       .  A
C2072      H2079   1.084       .  S
C2073      C2074   1.408       .  A
C2074      H2080   1.084       .  S
C2081      C2082   1.400       .  A
C2081      C2086   1.404       .  A
C2082      C2083   1.392       .  A
C2082      H2091   1.084       .  S
C2083      C2084   1.400       .  A
C2083      H2092   1.084       .  S
C2084      C2090   1.398       .  A
C2084      C2085   1.416       .  A
C2085      C2087   1.405       .  A
C2085      C2086   1.408       .  A
C2086      H2093   1.084       .  S
C2087      C2088   1.402       .  A
C2087      H2094   1.083       .  S
C2088      C2089   1.404       .  A
C2088      H2095   1.083       .  S
C2089      C2090   1.403       .  A
C2090      H2096   1.085       .  S
C2097      C2098   1.403       .  A
C2097      C2102   1.404       .  A
C2098      C2099   1.399       .  A
C2098      H2107   1.083       .  S
C2099      C2100   1.404       .  A
C2099      H2108   1.083       .  S
C2100      C2106   1.403       .  A
C2100      C2101   1.415       .  A
C2101      C2103   1.402       .  A
C2101      C2102   1.400       .  A
C2102      H2109   1.085       .  S
C2103      C2104   1.395       .  A
C2103      H2110   1.083       .  S
C2104      C2105   1.400       .  A
C2104      H2111   1.084       .  S
C2105      C2106   1.402       .  A
C2106      H2112   1.085       .  S
C2113      C2114   1.408       .  A
C2113      C2118   1.408       .  A
C2114      C2115   1.394       .  A
C2114      H2123   1.083       .  S
C2115      C2116   1.399       .  A
C2115      H2124   1.084       .  S
C2116      C2122   1.403       .  A
C2116      C2117   1.414       .  A
C2117      C2119   1.404       .  A
C2117      C2118   1.409       .  A
C2118      H2125   1.084       .  S
C2119      C2120   1.401       .  A
C2119      H2126   1.083       .  S
C2120      C2121   1.405       .  A
C2120      H2127   1.083       .  S
C2121      C2122   1.404       .  A
C2122      H2128   1.085       .  S
C2129      C2130   1.404       .  A
C2129      C2134   1.403       .  A
C2130      C2131   1.399       .  A
C2130      H2139   1.083       .  S
C2131      C2132   1.403       .  A
C2131      H2140   1.084       .  S
C2132      C2138   1.408       .  A
C2132      C2133   1.415       .  A
C2133      C2135   1.400       .  A
C2133      C2134   1.406       .  A
C2134      H2141   1.085       .  S
C2135      C2136   1.397       .  A
C2135      H2142   1.084       .  S
C2136      C2137   1.408       .  A
C2136      H2143   1.083       .  S
C2137      C2138   1.408       .  A
C2138      H2144   1.084       .  S
C2145      C2146   1.404       .  A
C2145      C2150   1.404       .  A
C2146      C2147   1.409       .  A
C2146      H2155   1.083       .  S
C2147      C2148   1.410       .  A
C2147      H2156   1.083       .  S
C2148      C2154   1.416       .  A
C2148      C2149   1.413       .  A
C2149      C2151   1.398       .  A
C2149      C2150   1.400       .  A
C2150      H2157   1.085       .  S
C2151      C2152   1.391       .  A
C2151      H2158   1.084       .  S
C2152      C2153   1.408       .  A
C2152      H2159   1.083       .  S
C2153      C2154   1.414       .  A
C2154      H2160   1.083       .  S
C2161      C2162   1.406       .  A
C2161      C2166   1.405       .  A
C2162      C2163   1.400       .  A
C2162      H2171   1.083       .  S
C2163      C2164   1.404       .  A
C2163      H2172   1.084       .  S
C2164      C2170   1.406       .  A
C2164      C2165   1.415       .  A
C2165      C2167   1.400       .  A
C2165      C2166   1.399       .  A
C2166      H2173   1.085       .  S
C2167      C2168   1.392       .  A
C2167      H2174   1.084       .  S
C2168      C2169   1.402       .  A
C2168      H2175   1.084       .  S
C2169      C2170   1.404       .  A
C2170      H2176   1.084       .  S
C2177      C2178   1.406       .  A
C2177      C2182   1.407       .  A
C2178      C2179   1.399       .  A
C2178      H2187   1.083       .  S
C2179      C2180   1.403       .  A
C2179      H2188   1.084       .  S
C2180      C2186   1.409       .  A
C2180      C2181   1.414       .  A
C2181      C2183   1.403       .  A
C2181      C2182   1.410       .  A
C2182      H2189   1.084       .  S
C2183      C2184   1.400       .  A
C2183      H2190   1.084       .  S
C2184      C2185   1.408       .  A
C2184      H2191   1.083       .  S
C2185      C2186   1.409       .  A
C2186      H2192   1.084       .  S
C2193      C2194   1.409       .  A
C2193      C2198   1.403       .  A
C2194      C2195   1.395       .  A
C2194      H2203   1.083       .  S
C2195      C2196   1.400       .  A
C2195      H2204   1.084       .  S
C2196      C2202   1.404   1_556  A
C2196      C2197   1.415       .  A
C2197      C2199   1.400   1_556  A
C2197      C2198   1.403       .  A
C2198      H2205   1.084       .  S
C2199      C2200   1.395       .  A
C2199      H2206   1.084   1_554  S
C2200      C2201   1.406       .  A
C2200      H2207   1.083       .  S
C2201      C2202   1.404       .  A
C2202      H2208   1.084       .  S
C2209      C2210   1.404       .  A
C2209      C2214   1.405       .  A
C2210      C2211   1.397       .  A
C2210      H2219   1.084       .  S
C2211      C2212   1.401       .  A
C2211      H2220   1.084       .  S
C2212      C2218   1.407       .  A
C2212      C2213   1.417       .  A
C2213      C2215   1.405       .  A
C2213      C2214   1.412       .  A
C2214      H2221   1.084       .  S
C2215      C2216   1.402       .  A
C2215      H2222   1.083       .  S
C2216      C2217   1.403       .  A
C2216      H2223   1.083       .  S
C2217      C2218   1.404       .  A
C2218      H2224   1.085       .  S
C2225      C2226   1.402       .  A
C2225      C2230   1.400       .  A
C2226      C2227   1.391       .  A
C2226      H2235   1.084       .  S
C2227      C2228   1.399       .  A
C2227      H2236   1.084       .  S
C2228      C2234   1.395       .  A
C2228      C2229   1.416       .  A
C2229      C2231   1.401       .  A
C2229      C2230   1.398       .  A
C2230      H2237   1.085       .  S
C2231      C2232   1.395       .  A
C2231      H2238   1.084       .  S
C2232      C2233   1.404       .  A
C2232      H2239   1.083       .  S
C2233      C2234   1.400       .  A
C2234      H2240   1.085       .  S
