geometry optimzed in LAMMPS
_audit_creation_date              2020-12-01 
_audit_creation_method            'lammps2cif' 
_symmetry_space_group_name_H-M    'P1' 
_symmetry_Int_Tables_number       1 
_symmetry_cell_setting            triclinic 
loop_ 
_symmetry_equiv_pos_as_xyz 
  x,y,z 
_cell_length_a                    33.58441782 
_cell_length_b                    33.583136461166525 
_cell_length_c                    96.35566431401041 
_cell_angle_alpha                 89.91995068723668 
_cell_angle_beta                  90.10333385028366 
_cell_angle_gamma                 119.9404806649985 
loop_ 
_atom_site_label 
_atom_site_type_symbol 
_atom_site_fract_x 
_atom_site_fract_y 
_atom_site_fract_z 
_atom_site_charge 
O1          O  0.86424663  0.15920406  0.61158660    -0.80200
O2          O  0.90879230  0.19908826  0.54869862    -0.64900
O3          O  0.90517141  0.21293671  0.58792832    -1.11500
C4          C  0.75869685  0.19616890  0.57720629     1.06600
O5          O  0.88962585  0.25254741  0.54522276    -0.78100
O6          O  0.85943397  0.28646358  0.56548038    -0.65700
Ni7        Ni  0.91758288  0.17635124  0.60037119     1.34900
C8          C  0.87120313  0.29812346  0.57800317     0.85400
O9          O  0.96899008  0.21254296  0.56880895    -0.78700
O10         O  0.97243685  0.18985090  0.59045874    -0.89000
C11         C  0.90963971  0.23071426  0.54130540     0.85000
O12         O  0.88301602  0.11950922  0.59103046    -0.67200
O13         O  0.77456288  0.20842244  0.56489805    -0.86400
C14         C  0.87266194  0.10854946  0.57843424     0.85800
C15         C  0.98963367  0.20375139  0.57843145     1.07400
H16         H  0.82562575  0.16351287  0.56672007     0.39200
O17         O  0.84723665  0.19546022  0.56859494    -1.09100
O18         O  0.86855336  0.27008997  0.58734559    -0.65800
Ni19       Ni  0.84428805  0.20441399  0.58807190     1.26300
O20         O  0.88207281  0.13785709  0.56878923    -0.66000
O21         O  0.78256859  0.19427838  0.58728927    -0.78300
C22         C  0.84931399  0.18473813  0.61607907     0.85200
O23         O  0.84389104  0.21136597  0.60790272    -0.65500
Ni24       Ni  0.83289735  0.22947744  0.55572580     1.27400
Ni25       Ni  0.90784657  0.20400034  0.56838400     1.26100
H26         H  0.92698403  0.24468858  0.58998667     0.39700
O27         O  0.18486942  0.30944532  0.39299865    -0.80200
O28         O  0.12979622  0.29933450  0.45287132    -0.64900
O29         O  0.13718441  0.31871038  0.41400532    -1.11500
C30         C  0.28298949  0.44809949  0.42553640     1.06600
O31         O  0.15098374  0.37208662  0.45686361    -0.78100
O32         O  0.18499481  0.43818793  0.43729190    -0.65700
Ni33       Ni  0.12730676  0.27093391  0.40160167     1.34900
C34         C  0.17134632  0.43820014  0.42500310     0.85400
O35         O  0.07186362  0.25322384  0.43209703    -0.78700
O36         O  0.06942599  0.22976503  0.41006651    -0.89000
C37         C  0.12741289  0.32956887  0.46005090     0.85000
O38         O  0.15709554  0.24457104  0.41152828    -0.67200
O39         O  0.26830758  0.44220393  0.43805948    -0.86400
C40         C  0.16746748  0.24483457  0.42414324     0.85800
C41         C  0.05137973  0.22540484  0.42204592     1.07400
H42         H  0.21533419  0.34756690  0.43520195     0.39200
O43         O  0.19392248  0.35834006  0.43353376    -1.09100
O44         O  0.17199160  0.41242456  0.41539184    -0.65800
Ni45       Ni  0.19761472  0.37199081  0.41413285     1.26300
O46         O  0.15914510  0.26634999  0.43346049    -0.66000
O47         O  0.25877120  0.42442783  0.41520798    -0.78300
C48         C  0.19172254  0.34538422  0.38681015     0.85200
O49         O  0.19794538  0.37950452  0.39415354    -0.65500
Ni50       Ni  0.20904133  0.40525654  0.44687686     1.27400
Ni51       Ni  0.13296586  0.30619387  0.43331420     1.26100
H52         H  0.11500707  0.32809056  0.41173325     0.39700
O53         O  0.15475999  0.84416026  0.39104213    -0.80200
O54         O  0.20727345  0.90385755  0.45112967    -0.64900
O55         O  0.21614946  0.88979835  0.41230325    -1.11500
C56         C  0.19331842  0.74329732  0.42534747     1.06600
O57         O  0.25482477  0.87848685  0.45641118    -0.78100
O58         O  0.28751609  0.84751616  0.43574992    -0.65700
Ni59       Ni  0.18057980  0.90308187  0.39967744     1.34900
C60         C  0.29675097  0.85234490  0.42287352     0.85400
O61         O  0.22175396  0.95960692  0.42980436    -0.78700
O62         O  0.20263868  0.96271885  0.40765133    -0.89000
C63         C  0.23639662  0.90280474  0.45925316     0.85000
O64         O  0.12540245  0.87877880  0.40998473    -0.67200
O65         O  0.21001155  0.76262616  0.43703857    -0.86400
C66         C  0.11542357  0.86878560  0.42262893     0.85800
C67         C  0.21578120  0.98060115  0.41965276     1.07400
H68         H  0.16564912  0.81592831  0.43519355     0.39200
O69         O  0.19756687  0.83553745  0.43277061    -1.09100
O70         O  0.26734024  0.84582460  0.41347328    -0.65800
Ni71       Ni  0.20264689  0.82722502  0.41326746     1.26300
O72         O  0.14491394  0.87493162  0.43186109    -0.66000
O73         O  0.18749444  0.76417608  0.41512988    -0.78300
C74         C  0.17876492  0.82888277  0.38570878     0.85200
O75         O  0.20595633  0.82238131  0.39332307    -0.65500
Ni76       Ni  0.23131923  0.82153459  0.44584897     1.27400
Ni77       Ni  0.21018407  0.89761812  0.43164160     1.26100
H78         H  0.24805749  0.90917576  0.40981374     0.39700
O79         O  0.31473841  0.17691751  0.60791715    -0.80200
O80         O  0.31590588  0.12279351  0.54892269    -0.64900
O81         O  0.33442236  0.13304650  0.58784611    -1.11500
C82         C  0.46139371  0.27878543  0.57621452     1.06600
O83         O  0.38840650  0.14338008  0.54490744    -0.78100
O84         O  0.44797040  0.17032657  0.56672594    -0.65700
Ni85       Ni  0.28376733  0.11736356  0.59986139     1.34900
C86         C  0.45222173  0.16829149  0.57976085     0.85400
O87         O  0.27091392  0.06568204  0.56958983    -0.78700
O88         O  0.24963328  0.05701380  0.59201622    -0.89000
C89         C  0.34598357  0.12117377  0.54145490     0.85000
O90         O  0.25023455  0.13809834  0.58903867    -0.67200
O91         O  0.46110672  0.25806150  0.56499859    -0.86400
C92         C  0.25414350  0.15264048  0.57671745     0.85800
C93         C  0.24500376  0.04196990  0.57960989     1.07400
H94         H  0.36280008  0.20890074  0.56492495     0.39200
O95         O  0.37353528  0.18835921  0.56786512    -1.09100
O96         O  0.42992546  0.17783403  0.58855429    -0.65800
Ni97       Ni  0.38355768  0.19607227  0.58752732     1.26300
O98         O  0.28207921  0.15196948  0.56801967    -0.66000
O99         O  0.43190069  0.25927311  0.58594627    -0.78300
C100        C  0.35162526  0.18997445  0.61452580     0.85200
O101        O  0.38784541  0.20014733  0.60765173    -0.65500
Ni102      Ni  0.42273360  0.19978354  0.55578292     1.27400
Ni103      Ni  0.32279392  0.12708687  0.56844423     1.26100
H104        H  0.34696928  0.11361566  0.59031783     0.39700
O105        O  0.71980618  0.86183426  0.38625728    -0.80200
O106        O  0.72954522  0.81975403  0.44981885    -0.64900
O107        O  0.70660336  0.81121543  0.41083624    -1.11500
C108        C  0.58511408  0.83843902  0.42402379     1.06600
O109        O  0.65647733  0.77674476  0.45549457    -0.78100
O110        O  0.59155288  0.74567425  0.43561310    -0.65700
Ni111      Ni  0.75684331  0.85092214  0.39913021     1.34900
C112        C  0.58822123  0.73286346  0.42307217     0.85400
O113        O  0.76705601  0.80073953  0.42859025    -0.78700
O114        O  0.80107997  0.84403155  0.41003292    -0.89000
C115        C  0.69888498  0.79267298  0.45816216     0.85000
O116        O  0.76920183  0.90534617  0.40873721    -0.67200
O117        O  0.58991056  0.82626611  0.43619195    -0.86400
C118        C  0.77931961  0.91347472  0.42148018     0.85800
C119        C  0.80118902  0.82067831  0.42044071     1.07400
H120        H  0.68684246  0.86508286  0.43326265     0.39200
O121        O  0.67282530  0.83259230  0.43135388    -1.09100
O122        O  0.61240804  0.75955454  0.41325650    -0.65800
Ni123      Ni  0.65741981  0.82455307  0.41196840     1.26300
O124        O  0.76642131  0.88147464  0.43043303    -0.66000
O125        O  0.60919903  0.83933886  0.41366668    -0.78300
C126        C  0.67735612  0.84158407  0.38329202     0.85200
O127        O  0.64638761  0.81842470  0.39222321    -0.65500
Ni128      Ni  0.62565326  0.80283732  0.44495774     1.27400
Ni129      Ni  0.71993820  0.81663965  0.43032124     1.26100
H130        H  0.69503157  0.77976480  0.40795997     0.39700
O131        O  0.88486210  0.71639830  0.61101094    -0.80200
O132        O  0.83402474  0.72642055  0.55117669    -0.64900
O133        O  0.82581930  0.70504122  0.58998701    -1.11500
C134        C  0.85059369  0.58113240  0.57784618     1.06600
O135        O  0.79108679  0.65284995  0.54582146    -0.78100
O136        O  0.75987302  0.58789030  0.56558142    -0.65700
Ni137      Ni  0.86366934  0.75346516  0.60232374     1.34900
C138        C  0.74524644  0.58595600  0.57784043     0.85400
O139        O  0.81837069  0.76734884  0.57255823    -0.78700
O140        O  0.84479980  0.79357317  0.59405188    -0.89000
C141        C  0.80645572  0.69512602  0.54305263     0.85000
O142        O  0.91936181  0.78101120  0.59206789    -0.67200
O143        O  0.84090928  0.58726715  0.56547085    -0.86400
C144        C  0.92763716  0.78342761  0.57921457     0.85800
C145        C  0.82756325  0.79609489  0.58245025     1.07400
H146        H  0.87851722  0.68265579  0.56837896     0.39200
O147        O  0.84594066  0.66930532  0.56999691    -1.09100
O148        O  0.77080605  0.61081717  0.58778684    -0.65800
Ni149      Ni  0.83647794  0.65406901  0.58938376     1.26300
O150        O  0.89668375  0.76235664  0.57015122    -0.66000
O151        O  0.84915741  0.60405455  0.58821813    -0.78300
C152        C  0.85708547  0.67886945  0.61679699     0.85200
O153        O  0.82945416  0.64529655  0.60923730    -0.65500
Ni154      Ni  0.81722777  0.62232081  0.55643527     1.27400
Ni155      Ni  0.83173143  0.71805658  0.57070588     1.26100
H156        H  0.79424674  0.69409978  0.59258976     0.39700
O157        O  0.04820792  0.54164529  0.05886964    -0.80200
O158        O  0.05230043  0.49691347  0.11746906    -0.64900
O159        O  0.02360105  0.47821885  0.07930270    -1.11500
C160        C  0.90172069  0.50264058  0.09074753     1.06600
O161        O  0.97999071  0.44962897  0.12351493    -0.78100
O162        O  0.92095089  0.41068245  0.10183746    -0.65700
Ni163      Ni  0.07158394  0.50457860  0.06619095     1.34900
C164        C  0.91061809  0.40301343  0.08906220     0.85400
O165        O  0.09050864  0.47614609  0.09644970    -0.78700
O166        O  0.09747043  0.46944072  0.07350702    -0.89000
C167        C  0.02310657  0.46894239  0.12600928     0.85000
O168        O  0.11612081  0.55686285  0.07620966    -0.67200
O169        O  0.90200621  0.48165146  0.10185569    -0.86400
C170        C  0.11434071  0.57492107  0.08755321     0.85800
C171        C  0.10891914  0.46768434  0.08605657     1.07400
H172        H  0.00350960  0.53399709  0.10193255     0.39200
O173        O  0.99133529  0.50226954  0.09927974    -1.09100
O174        O  0.92887390  0.43407268  0.07974432    -0.65800
Ni175      Ni  0.97869218  0.49761655  0.07976906     1.26300
O176        O  0.08228765  0.55378531  0.09628356    -0.66000
O177        O  0.93318331  0.51602739  0.08151066    -0.78300
C178        C  0.00976151  0.52348567  0.05275609     0.85200
O179        O  0.97343740  0.49755465  0.05968077    -0.65500
Ni180      Ni  0.94320490  0.46671828  0.11183090     1.27400
Ni181      Ni  0.04024575  0.48881815  0.09820239     1.26100
H182        H  0.00798062  0.44539860  0.07782259     0.39700
O183        O  0.19317243  0.38122775  0.27756626    -0.80200
O184        O  0.16321839  0.39006566  0.21616004    -0.64900
O185        O  0.13860413  0.36272562  0.25441756    -1.11500
C186        C  0.17040340  0.24326392  0.24385656     1.06600
O187        O  0.11586662  0.31757704  0.21049622    -0.78100
O188        O  0.07868185  0.25131466  0.23031744    -0.65700
Ni189      Ni  0.16438087  0.41001746  0.26790437     1.34900
C190        C  0.06505508  0.24593029  0.24283019     0.85400
O191        O  0.13930449  0.42867766  0.23615109    -0.78700
O192        O  0.13793969  0.44237682  0.25890612    -0.89000
C193        C  0.13474711  0.36049466  0.20776971     0.85000
O194        O  0.22215452  0.44894248  0.25947044    -0.67200
O195        O  0.15817944  0.24654427  0.23148395    -0.86400
C196        C  0.24044922  0.44822279  0.24806978     0.85800
C197        C  0.13329572  0.45000139  0.24618490     1.07400
H198        H  0.19879455  0.34299581  0.23400408     0.39200
O199        O  0.16619285  0.33021600  0.23541270    -1.09100
O200        O  0.09102507  0.26856436  0.25293693    -0.65800
Ni201      Ni  0.15494489  0.31557345  0.25470402     1.26300
O202        O  0.21750908  0.42144238  0.23817848    -0.66000
O203        O  0.17158216  0.26845926  0.25397227    -0.78300
C204        C  0.17156366  0.34086890  0.28245397     0.85200
O205        O  0.14700946  0.30707238  0.27450900    -0.65500
Ni206      Ni  0.13764982  0.28377640  0.22175806     1.27400
Ni207      Ni  0.15266913  0.37905979  0.23547667     1.26100
H208        H  0.10565549  0.34845317  0.25537899     0.39700
O209        O  0.63821130  0.83731340  0.27436692    -0.80200
O210        O  0.62680200  0.78562006  0.21379288    -0.64900
O211        O  0.65162821  0.79321926  0.25249385    -1.11500
C212        C  0.77775344  0.93983163  0.24034978     1.06600
O213        O  0.69940452  0.80780389  0.20908374    -0.78100
O214        O  0.76561451  0.83979871  0.22843861    -0.65700
Ni215      Ni  0.60477027  0.77825709  0.26575972     1.34900
C216        C  0.76836179  0.82848744  0.24080728     0.85400
O217        O  0.58487955  0.72724008  0.23479579    -0.78700
O218        O  0.56848472  0.71845922  0.25768446    -0.89000
C219        C  0.65690763  0.78533788  0.20596068     0.85000
O220        O  0.57019633  0.80049701  0.25625519    -0.67200
O221        O  0.77138028  0.92331658  0.22806142    -0.86400
C222        C  0.57071574  0.81485331  0.24406128     0.85800
C223        C  0.56155448  0.70345566  0.24522293     1.07400
H224        H  0.67590988  0.87087032  0.23113134     0.39200
O225        O  0.68744952  0.85008770  0.23280684    -1.09100
O226        O  0.74505005  0.83169741  0.25076359    -0.65800
Ni227      Ni  0.70243551  0.85487150  0.25213747     1.26300
O228        O  0.59566272  0.81336235  0.23443001    -0.66000
O229        O  0.75326969  0.91704821  0.25076717    -0.78300
C230        C  0.67732310  0.85115205  0.27976230     0.85200
O231        O  0.71068241  0.85685297  0.27208798    -0.65500
Ni232      Ni  0.73338099  0.86498512  0.21921941     1.27400
Ni233      Ni  0.63653356  0.78871836  0.23333822     1.26100
H234        H  0.66332979  0.77256313  0.25419730     0.39700
O235        O  0.48038745  0.52556926  0.05605524    -0.80200
O236        O  0.51786533  0.56814565  0.11665436    -0.64900
O237        O  0.53753781  0.56499707  0.07810471    -1.11500
C238        C  0.50803233  0.41443479  0.08928827     1.06600
O239        O  0.56948105  0.54676703  0.12059798    -0.78100
O240        O  0.60068323  0.51063498  0.10130970    -0.65700
Ni241      Ni  0.50852191  0.58408526  0.06501760     1.34900
C242        C  0.61409046  0.52119494  0.08885383     0.85400
O243        O  0.53636470  0.62979117  0.09641481    -0.78700
O244        O  0.53409022  0.64332068  0.07364372    -0.89000
C245        C  0.54955192  0.56913974  0.12407762     0.85000
O246        O  0.45166080  0.56437724  0.07411608    -0.67200
O247        O  0.51898158  0.42976574  0.10170412    -0.86400
C248        C  0.43502463  0.54600571  0.08573887     0.85800
C249        C  0.53960391  0.65613098  0.08633359     1.07400
H250        H  0.48136400  0.48546032  0.09876836     0.39200
O251        O  0.51377218  0.50583704  0.09718357    -1.09100
O252        O  0.58833249  0.52112301  0.07911158    -0.65800
Ni253      Ni  0.52365070  0.50210019  0.07791380     1.26300
O254        O  0.45951205  0.54310392  0.09535547    -0.66000
O255        O  0.50913783  0.43882040  0.07889007    -0.78300
C256        C  0.50331431  0.50912465  0.05060791     0.85200
O257        O  0.52986102  0.50119806  0.05807664    -0.65500
Ni258      Ni  0.54352153  0.48889071  0.11060917     1.27400
Ni259      Ni  0.52527149  0.56744913  0.09716132     1.26100
H260        H  0.57022552  0.58460191  0.07678109     0.39700
O261        O  0.50961562  0.98719554  0.05934888    -0.80200
O262        O  0.44884922  0.96974223  0.12041216    -0.64900
O263        O  0.45963500  0.99100813  0.08147294    -1.11500
C264        C  0.60463910  0.11928686  0.09391931     1.06600
O265        O  0.47393377  0.04277667  0.12534842    -0.78100
O266        O  0.51177487  0.11139408  0.10626740    -0.65700
Ni267      Ni  0.45520689  0.94499326  0.06912507     1.34900
C268        C  0.49552491  0.11197384  0.09440374     0.85400
O269        O  0.39365268  0.92535067  0.09899226    -0.78700
O270        O  0.40015762  0.89919116  0.07807256    -0.89000
C271        C  0.44869747  0.00014402  0.12817389     0.85000
O272        O  0.49267181  0.92756903  0.07921816    -0.67200
O273        O  0.59139132  0.10960002  0.10656265    -0.86400
C274        C  0.49621179  0.92235976  0.09206814     0.85800
C275        C  0.37839774  0.89528155  0.08932953     1.07400
H276        H  0.53619948  0.01769616  0.10252546     0.39200
O277        O  0.51513557  0.02913344  0.10137322    -1.09100
O278        O  0.49106281  0.08410185  0.08469140    -0.65800
Ni279      Ni  0.51838227  0.04539154  0.08219264     1.26300
O280        O  0.47928635  0.93671111  0.10124881    -0.66000
O281        O  0.57857643  0.09876911  0.08355379    -0.78300
C282        C  0.51570262  0.02456081  0.05428270     0.85200
O283        O  0.51788323  0.05551581  0.06239282    -0.65500
Ni284      Ni  0.53208321  0.07441359  0.11532700     1.27400
Ni285      Ni  0.45409922  0.97764248  0.10080729     1.26100
H286        H  0.43645134  0.99895505  0.07883503     0.39700
O287        O  0.16777257  0.81201705  0.27787831    -0.80200
O288        O  0.22323522  0.85569115  0.21616739    -0.64900
O289        O  0.21473433  0.86573536  0.25512820    -1.11500
C290        C  0.06705091  0.84303502  0.24341321     1.06600
O291        O  0.19684172  0.90279201  0.21154194    -0.78100
O292        O  0.15740830  0.93112036  0.23088802    -0.65700
Ni293      Ni  0.22032804  0.82365063  0.26701820     1.34900
C294        C  0.17572437  0.94883310  0.24249723     0.85400
O295        O  0.28093713  0.86919452  0.23708491    -0.78700
O296        O  0.27385796  0.83204330  0.25713840    -0.89000
C297        C  0.22272661  0.88619927  0.20855759     0.85000
O298        O  0.18094996  0.76894623  0.25707580    -0.67200
O299        O  0.07937180  0.84670069  0.23068322    -0.86400
C300        C  0.18010202  0.76110285  0.24422771     0.85800
C301        C  0.29595550  0.85193909  0.24607981     1.07400
H302        H  0.13756395  0.81416880  0.23445712     0.39200
O303        O  0.15780752  0.84687208  0.23551814    -1.09100
O304        O  0.18163765  0.92596416  0.25210850    -0.65800
Ni305      Ni  0.15533118  0.86000701  0.25467834     1.26300
O306        O  0.19733123  0.79302209  0.23524764    -0.66000
O307        O  0.09439916  0.85176417  0.25366065    -0.78300
C308        C  0.15913714  0.84214413  0.28255103     0.85200
O309        O  0.15638822  0.87047281  0.27437273    -0.65500
Ni310      Ni  0.13877989  0.87407138  0.22173571     1.27400
Ni311      Ni  0.21949341  0.85854494  0.23573210     1.26100
H312        H  0.23745581  0.89660839  0.25780515     0.39700
O313        O  0.82856873  0.65076406  0.72614593    -0.80200
O314        O  0.79566907  0.64258092  0.78688940    -0.64900
O315        O  0.79460026  0.67103709  0.74899959    -1.11500
C316        C  0.94478174  0.79225323  0.75897517     1.06600
O317        O  0.81821178  0.71437860  0.79282849    -0.78100
O318        O  0.84033455  0.77847215  0.77275174    -0.65700
Ni319      Ni  0.77098774  0.62359489  0.73559215     1.34900
C320        C  0.83537476  0.78604556  0.76013579     0.85400
O321        O  0.73231605  0.60230459  0.76723683    -0.78700
O322        O  0.71231356  0.59298476  0.74469679    -0.89000
C323        C  0.79549305  0.67129561  0.79534571     0.85000
O324        O  0.78715614  0.58219603  0.74397256    -0.67200
O325        O  0.92717036  0.79001087  0.77093960    -0.86400
C326        C  0.80924516  0.58384420  0.75483585     0.85800
C327        C  0.70341853  0.58190269  0.75746549     1.07400
H328        H  0.87635993  0.69214669  0.76924595     0.39200
O329        O  0.85571204  0.70392892  0.76770233    -1.09100
O330        O  0.84252664  0.76589253  0.75003335    -0.65800
Ni331      Ni  0.85841873  0.71787043  0.74839519     1.26300
O332        O  0.81805851  0.61329672  0.76434996    -0.66000
O333        O  0.92260335  0.76441145  0.74906936    -0.78300
C334        C  0.84733586  0.69050255  0.72081867     0.85200
O335        O  0.85820841  0.72535091  0.72848996    -0.65500
Ni336      Ni  0.87167270  0.75046209  0.78113798     1.27400
Ni337      Ni  0.79414445  0.65399338  0.76774504     1.26100
H338        H  0.77612644  0.68567414  0.74841066     0.39700
O339        O  0.52373622  0.50585226  0.94324352    -0.80200
O340        O  0.56783275  0.53223119  0.88289608    -0.64900
O341        O  0.56354512  0.55989867  0.92059901    -1.11500
C342        C  0.41259079  0.52591113  0.90819343     1.06600
O343        O  0.54384149  0.57986705  0.87645363    -0.78100
O344        O  0.50813903  0.61559755  0.89472069    -0.65700
Ni345      Ni  0.58277296  0.53376248  0.93462246     1.34900
C346        C  0.51856809  0.63216249  0.90690764     0.85400
O347        O  0.62874439  0.55623315  0.90340460    -0.78700
O348        O  0.64256338  0.55911167  0.92638228    -0.89000
C349        C  0.56818069  0.56092438  0.87432422     0.85000
O350        O  0.56510250  0.47564739  0.92652713    -0.67200
O351        O  0.42761320  0.53402116  0.89569485    -0.86400
C352        C  0.54795678  0.45744016  0.91493030     0.85800
C353        C  0.65474393  0.56105496  0.91372511     1.07400
H354        H  0.48489984  0.49829435  0.90032102     0.39200
O355        O  0.50458563  0.53107506  0.90127736    -1.09100
O356        O  0.51871271  0.60879517  0.91735030    -0.65800
Ni357      Ni  0.50046535  0.54478937  0.92018059     1.26300
O358        O  0.54408723  0.47999483  0.90496347    -0.66000
O359        O  0.43717541  0.52910186  0.91875364    -0.78300
C360        C  0.50557902  0.52834759  0.94786856     0.85200
O361        O  0.49878043  0.55447327  0.93982560    -0.65500
Ni362      Ni  0.48645997  0.55638661  0.88675084     1.27400
Ni363      Ni  0.56662690  0.54434040  0.90196421     1.26100
H364        H  0.58273232  0.59291385  0.92144293     0.39700
O365        O  0.37810078  0.21353763  0.72491071    -0.80200
O366        O  0.39148579  0.17833526  0.78505523    -0.64900
O367        O  0.36391034  0.15636412  0.74673205    -1.11500
C368        C  0.23448252  0.16981399  0.75836113     1.06600
O369        O  0.32051773  0.12654962  0.79093492    -0.78100
O370        O  0.25824474  0.08365834  0.77038766    -0.65700
Ni371      Ni  0.41091092  0.18699353  0.73334488     1.34900
C372        C  0.25106425  0.07314004  0.75761728     0.85400
O373        O  0.43249740  0.16077367  0.76430396    -0.78700
O374        O  0.44624299  0.16221596  0.74139366    -0.89000
C375        C  0.36348677  0.14921657  0.79360363     0.85000
O376        O  0.44802417  0.24405826  0.74256740    -0.67200
O377        O  0.23811684  0.15353804  0.77002449    -0.86400
C378        C  0.44631494  0.25985570  0.75435690     0.85800
C379        C  0.45472796  0.15752639  0.75403854     1.07400
H380        H  0.33757637  0.20883438  0.76854332     0.39200
O381        O  0.32763422  0.17710420  0.76645608    -1.09100
O382        O  0.26951353  0.10265710  0.74791904    -0.65800
Ni383      Ni  0.31348889  0.16798737  0.74703482     1.26300
O384        O  0.41882750  0.23475498  0.76381108    -0.66000
O385        O  0.26335023  0.17993380  0.74847163    -0.78300
C386        C  0.33926816  0.18817132  0.71938143     0.85200
O387        O  0.30538456  0.16213873  0.72710672    -0.65500
Ni388      Ni  0.28143136  0.14120752  0.77962358     1.27400
Ni389      Ni  0.37993218  0.16897520  0.76571598     1.26100
H390        H  0.35186125  0.12382373  0.74535042     0.39700
O391        O  0.53326351  0.05871704  0.94533365    -0.80200
O392        O  0.51111728  0.07642478  0.88354992    -0.64900
O393        O  0.48343190  0.04756329  0.92159869    -1.11500
C394        C  0.51509558  0.92789125  0.91027135     1.06600
O395        O  0.46336864  0.00452131  0.87765607    -0.78100
O396        O  0.42827053  0.93340943  0.89599183    -0.65700
Ni397      Ni  0.51130004  0.09347473  0.93544577     1.34900
C398        C  0.40937895  0.92912881  0.90773232     0.85400
O399        O  0.48693707  0.11459622  0.90349751    -0.78700
O400        O  0.49092564  0.13100076  0.92629292    -0.89000
C401        C  0.48205614  0.04753487  0.87517050     0.85000
O402        O  0.57113427  0.12879319  0.92765014    -0.67200
O403        O  0.51065512  0.93664277  0.89760547    -0.86400
C404        C  0.58822490  0.13042635  0.91579621     0.85800
C405        C  0.48449577  0.13771486  0.91362883     1.07400
H406        H  0.54472020  0.02806258  0.90227490     0.39200
O407        O  0.51185434  0.01536339  0.90281364    -1.09100
O408        O  0.43096163  0.95400186  0.91818622    -0.65800
Ni409      Ni  0.49545002  0.99744230  0.92168380     1.26300
O410        O  0.56407290  0.10668748  0.90559104    -0.66000
O411        O  0.50855037  0.94758357  0.92071628    -0.78300
C412        C  0.50674081  0.01843795  0.94980320     0.85200
O413        O  0.48242423  0.98616164  0.94131412    -0.65500
Ni414      Ni  0.48767244  0.97189376  0.88829112     1.27400
Ni415      Ni  0.49930617  0.06469730  0.90278097     1.26100
H416        H  0.45067671  0.03525172  0.92243412     0.39700
O417        O  0.98153211  0.51528378  0.94407122    -0.80200
O418        O  0.96718311  0.47189859  0.88284628    -0.64900
O419        O  0.99716040  0.47741290  0.92097541    -1.11500
C420        C  0.11243477  0.63043478  0.90934446     1.06600
O421        O  0.03983346  0.50168181  0.87650957    -0.78100
O422        O  0.10939621  0.53794405  0.89535618    -0.65700
Ni423      Ni  0.95116296  0.45708436  0.93480544     1.34900
C424        C  0.11506205  0.52559550  0.90733578     0.85400
O425        O  0.93127098  0.41055647  0.90325629    -0.78700
O426        O  0.91747756  0.39779373  0.92616953    -0.89000
C427        C  0.99704527  0.47470306  0.87427462     0.85000
O428        O  0.91165813  0.47576837  0.92655451    -0.67200
O429        O  0.10490328  0.61656575  0.89673627    -0.86400
C430        C  0.90958307  0.49131550  0.91475023     0.85800
C431        C  0.90959285  0.38461314  0.91352368     1.07400
H432        H  0.01216147  0.55556720  0.90099972     0.39200
O433        O  0.02658739  0.53696709  0.90181442    -1.09100
O434        O  0.09075180  0.52323054  0.91783367    -0.65800
Ni435      Ni  0.04440266  0.54079506  0.92084598     1.26300
O436        O  0.93507599  0.49368644  0.90469028    -0.66000
O437        O  0.09175499  0.60462344  0.91976533    -0.78300
C438        C  0.02210996  0.53328968  0.94878773     0.85200
O439        O  0.05527980  0.54155246  0.94063003    -0.65500
Ni440      Ni  0.07067332  0.55815613  0.88739826     1.27400
Ni441      Ni  0.97947244  0.47384317  0.90212615     1.26100
H442        H  0.01149643  0.45877234  0.92197805     0.39700
O443        O  0.81557413  0.19694521  0.72639389    -0.80200
O444        O  0.85778598  0.24830631  0.78579191    -0.64900
O445        O  0.87577435  0.23723828  0.74747069    -1.11500
C446        C  0.84801816  0.08964917  0.76060707     1.06600
O447        O  0.90792870  0.22623138  0.79114102    -0.78100
O448        O  0.94233972  0.19562727  0.77105926    -0.65700
Ni449      Ni  0.84840218  0.25715000  0.73401808     1.34900
C450        C  0.95132226  0.19667143  0.75823419     0.85400
O451        O  0.87614550  0.30542411  0.76448676    -0.78700
O452        O  0.87901015  0.31807360  0.74149438    -0.89000
C453        C  0.88849544  0.24977962  0.79380268     0.85000
O454        O  0.79367583  0.24399214  0.74350307    -0.67200
O455        O  0.86578248  0.10990923  0.77213808    -0.86400
C456        C  0.77617931  0.22499902  0.75499447     0.85800
C457        C  0.88189275  0.33132008  0.75405564     1.07400
H458        H  0.82027496  0.16196957  0.77000207     0.39200
O459        O  0.85222168  0.18163932  0.76762834    -1.09100
O460        O  0.92185978  0.18835025  0.74868463    -0.65800
Ni461      Ni  0.85813932  0.17326493  0.74823860     1.26300
O462        O  0.79943800  0.21957987  0.76447400    -0.66000
O463        O  0.84058750  0.10952432  0.75036631    -0.78300
C464        C  0.83714324  0.17967758  0.72061532     0.85200
O465        O  0.86099658  0.16820793  0.72819265    -0.65500
Ni466      Ni  0.88578850  0.16880221  0.78090604     1.27400
Ni467      Ni  0.86479555  0.24348748  0.76639795     1.26100
H468        H  0.90857158  0.25506379  0.74600271     0.39700
C469        C  0.96319280  0.33027344  0.82269230    -0.27600
C470        C  0.93490614  0.34641072  0.82798114     0.06100
C471        C  0.89114844  0.33020973  0.82204225     0.25700
C472        C  0.87618564  0.29856465  0.81108404    -0.12000
C473        C  0.90420444  0.28190633  0.80586321    -0.26000
C474        C  0.94806188  0.29819448  0.81183430     0.36500
C475        C  0.95101526  0.37972859  0.83973032     0.06100
F476        F  0.86322224  0.34584195  0.82661020    -0.19800
H477        H  0.84252129  0.28711314  0.80665310     0.15900
F478        F  0.97696502  0.28417671  0.80696664    -0.23500
H479        H  0.99701976  0.34227293  0.82707944     0.17700
C480        C  0.92412667  0.37054663  0.85174571     0.25700
C481        C  0.93912641  0.40203048  0.86269796    -0.12000
C482        C  0.98157049  0.44316671  0.86210392    -0.26000
C483        C  0.00892563  0.45215507  0.85015633     0.36600
C484        C  0.99365895  0.42070440  0.83909295    -0.27700
F485        F  0.88396553  0.33032953  0.85311542    -0.19800
H486        H  0.91785209  0.39357505  0.87185465     0.15900
F487        F  0.05002358  0.49151158  0.84906140    -0.23500
H488        H  0.01500739  0.42851361  0.82994811     0.17700
C489        C  0.29185588  0.82812743  0.89875289    -0.27600
C490        C  0.27159120  0.81258044  0.91183941     0.06100
C491        C  0.29588466  0.83799354  0.92364935     0.25700
C492        C  0.33982377  0.87703369  0.92229660    -0.12000
C493        C  0.36046035  0.89170268  0.90916428    -0.26000
C494        C  0.33512175  0.86716972  0.89736422     0.36500
C495        C  0.22675579  0.76843665  0.91284538     0.06100
F496        F  0.27737871  0.82506699  0.93650619    -0.19800
H497        H  0.35819537  0.89499085  0.93158118     0.15900
F498        F  0.35244425  0.87991530  0.88436293    -0.23500
H499        H  0.27485958  0.80903163  0.88946727     0.17700
C500        C  0.19156270  0.75746207  0.90301359     0.25700
C501        C  0.15344005  0.71309526  0.90237275    -0.12000
C502        C  0.14857084  0.67890618  0.91174278    -0.26000
C503        C  0.18177355  0.69058416  0.92223838     0.36600
C504        C  0.22065071  0.73474541  0.92267329    -0.27700
F505        F  0.19447122  0.78930376  0.89375041    -0.19800
H506        H  0.12808222  0.70508388  0.89428918     0.15900
F507        F  0.17859276  0.65832862  0.93137722    -0.23500
H508        H  0.24720743  0.74164938  0.93023350     0.17700
C509        C  0.71021464  0.19019301  0.90107649    -0.27600
C510        C  0.73408163  0.22335970  0.91134624     0.06100
C511        C  0.70983048  0.22584415  0.92285718     0.25700
C512        C  0.66279663  0.19549116  0.92415357    -0.12000
C513        C  0.63848844  0.16193377  0.91398430    -0.26000
C514        C  0.66283888  0.15944050  0.90239077     0.36500
C515        C  0.78352539  0.25766293  0.90986412     0.06100
F516        F  0.73142073  0.25885754  0.93265488    -0.19800
H517        H  0.64525715  0.19885420  0.93310944     0.15900
F518        F  0.64118577  0.12714516  0.89241649    -0.23500
H519        H  0.72834157  0.18806151  0.89207725     0.17700
C520        C  0.81455424  0.26387373  0.92058148     0.25700
C521        C  0.85767221  0.30366648  0.92106417    -0.12000
C522        C  0.87073638  0.33776283  0.91081960    -0.26000
C523        C  0.84145938  0.32918219  0.89933464     0.36600
C524        C  0.79821162  0.28932619  0.89888996    -0.27700
F525        F  0.80185490  0.23293019  0.93108797    -0.19800
H526        H  0.87972921  0.30914739  0.92992462     0.15900
F527        F  0.85218371  0.36148393  0.88935268    -0.23500
H528        H  0.77471090  0.28515041  0.89056455     0.17700
C529        C  0.04359557  0.17584000  0.74359306    -0.27600
C530        C  0.07937785  0.20040572  0.75310682     0.06100
C531        C  0.07543708  0.23007377  0.76257468     0.25700
C532        C  0.03480514  0.23179588  0.76336172    -0.12000
C533        C  0.99748525  0.20443616  0.75462667    -0.26000
C534        C  0.00287550  0.17779383  0.74430979     0.36500
C535        C  0.11857781  0.19179962  0.75410974     0.06100
F536        F  0.11019939  0.25585649  0.77150716    -0.19800
H537        H  0.03160434  0.25277699  0.77132328     0.15900
F538        F  0.96734596  0.15025461  0.73583265    -0.23500
H539        H  0.04601746  0.15287486  0.73619933     0.17700
C540        C  0.12818883  0.17754087  0.76677533     0.25700
C541        C  0.16561080  0.17046736  0.76796072    -0.12000
C542        C  0.19440491  0.17705133  0.75654254    -0.26000
C543        C  0.18385800  0.18998600  0.74370571     0.36600
C544        C  0.14617541  0.19711900  0.74253957    -0.27700
F545        F  0.10079192  0.16960589  0.77799687    -0.19800
H546        H  0.17199016  0.15985208  0.77794295     0.15900
F547        F  0.20964025  0.19558533  0.73226368    -0.23500
H548        H  0.13887835  0.20742288  0.73263728     0.17700
C549        C  0.65338764  0.16354898  0.76901002    -0.27600
C550        C  0.63065468  0.17344796  0.75847374     0.06100
C551        C  0.65619367  0.20182898  0.74740950     0.25700
C552        C  0.70327399  0.21894255  0.74666376    -0.12000
C553        C  0.72641756  0.20830453  0.75691213    -0.26000
C554        C  0.70096957  0.18056644  0.76822638     0.36500
C555        C  0.58100565  0.15753168  0.75922082     0.06100
F556        F  0.63568848  0.21403471  0.73743212    -0.19800
H557        H  0.72157439  0.24063020  0.73791071     0.15900
F558        F  0.72167767  0.16934855  0.77838451    -0.23500
H559        H  0.63420041  0.14233934  0.77774522     0.17700
C560        C  0.55220619  0.13448719  0.74789191     0.25700
C561        C  0.50938036  0.13157674  0.74670023    -0.12000
C562        C  0.49436881  0.15097443  0.75688433    -0.26000
C563        C  0.52133856  0.16985924  0.76889955     0.36600
C564        C  0.56434588  0.17304831  0.77001897    -0.27700
F565        F  0.56697101  0.11775518  0.73751009    -0.19800
H566        H  0.48899944  0.11627387  0.73745842     0.15900
F567        F  0.50848202  0.18955991  0.77889448    -0.23500
H568        H  0.58621066  0.19111327  0.77877594     0.17700
C569        C  0.46559639  0.12607922  0.85007330    -0.27600
C570        C  0.43281084  0.09435774  0.84081902     0.06100
C571        C  0.41816483  0.04736693  0.84252296     0.25700
C572        C  0.43488304  0.03253449  0.85351990    -0.12000
C573        C  0.46700561  0.06413958  0.86298424    -0.26000
C574        C  0.48260770  0.11136266  0.86101100     0.36500
C575        C  0.41468187  0.11058099  0.82933062     0.06100
F576        F  0.38833564  0.01575502  0.83339326    -0.19800
H577        H  0.42244401  0.99610124  0.85463972     0.15900
F578        F  0.51374959  0.14351985  0.86974938    -0.23500
H579        H  0.47757069  0.16243523  0.84896714     0.17700
C580        C  0.36721290  0.08953494  0.82668854     0.25700
C581        C  0.35085959  0.10320168  0.81533127    -0.12000
C582        C  0.38127854  0.13861940  0.80643952    -0.26000
C583        C  0.42865773  0.16153774  0.80959939     0.36600
C584        C  0.44500710  0.14740747  0.82086872    -0.27700
F585        F  0.33647768  0.05598064  0.83516715    -0.19800
H586        H  0.31420086  0.08541657  0.81339809     0.15900
F587        F  0.45945005  0.19717580  0.80173139    -0.23500
H588        H  0.48166439  0.16466776  0.82279833     0.17700
C589        C  0.83953511  0.54190824  0.89932761    -0.27600
C590        C  0.81251448  0.53935997  0.91077816     0.06100
C591        C  0.81664656  0.51978712  0.92319182     0.25700
C592        C  0.84804730  0.50435185  0.92426174    -0.12000
C593        C  0.87595761  0.50749232  0.91296038    -0.26000
C594        C  0.87115644  0.52627213  0.90037325     0.36500
C595        C  0.77760826  0.55388301  0.90967670     0.06100
F596        F  0.78910282  0.51407764  0.93420213    -0.19800
H597        H  0.85015873  0.48956989  0.93403958     0.15900
F598        F  0.89674508  0.52952607  0.88908819    -0.23500
H599        H  0.83619626  0.55614691  0.88959083     0.17700
C600        C  0.77474929  0.58243860  0.91982985     0.25700
C601        C  0.73598126  0.58757238  0.92054168    -0.12000
C602        C  0.69987077  0.56501345  0.91100025    -0.26000
C603        C  0.70459048  0.53954949  0.90015509     0.36600
C604        C  0.74323945  0.53420970  0.89951235    -0.27700
F605        F  0.80841726  0.60345896  0.92948209    -0.19800
H606        H  0.73321152  0.60745418  0.92894258     0.15900
F607        F  0.66979252  0.51575968  0.89104680    -0.23500
H608        H  0.74465542  0.51185899  0.89167208     0.17700
C609        C  0.28605229  0.48062101  0.90184132    -0.27600
C610        C  0.27585343  0.50415742  0.91201898     0.06100
C611        C  0.30948235  0.53009608  0.92204106     0.25700
C612        C  0.35320155  0.53450161  0.92130657    -0.12000
C613        C  0.36432593  0.51392710  0.91044034    -0.26000
C614        C  0.32994343  0.48587758  0.90092109     0.36500
C615        C  0.23256649  0.50599224  0.91098927     0.06100
F616        F  0.30137644  0.55409032  0.93186713    -0.19800
H617        H  0.37929634  0.55650370  0.92869554     0.15900
F618        F  0.33914725  0.46453095  0.89049388    -0.23500
H619        H  0.26047331  0.45969705  0.89417875     0.17700
C620        C  0.22042691  0.51750392  0.89826622     0.25700
C621        C  0.18143804  0.52186580  0.89721716    -0.12000
C622        C  0.15344092  0.51556786  0.90882567    -0.26000
C623        C  0.16505082  0.50321185  0.92157702     0.36600
C624        C  0.20429564  0.49849631  0.92260390    -0.27700
F625        F  0.24757804  0.52687928  0.88690837    -0.19800
H626        H  0.17412965  0.53170958  0.88724222     0.15900
F627        F  0.13921135  0.49650361  0.93308701    -0.23500
H628        H  0.21283180  0.48934401  0.93250369     0.17700
C629        C  0.45957775  0.23390111  0.91932310    -0.27600
C630        C  0.48448825  0.26357527  0.90838475     0.06100
C631        C  0.50142084  0.24746147  0.89774924     0.25700
C632        C  0.49731271  0.20401067  0.89884673    -0.12000
C633        C  0.47693013  0.17653417  0.91061998    -0.26000
C634        C  0.45601780  0.19086975  0.92051111     0.36500
C635        C  0.49963225  0.31302126  0.90966647     0.06100
F636        F  0.52609087  0.27534333  0.88709903    -0.19800
H637        H  0.51378337  0.19372908  0.89112520     0.15900
F638        F  0.43460177  0.16452385  0.93177477    -0.23500
H639        H  0.44565822  0.24546295  0.92750463     0.17700
C640        C  0.49458095  0.33831996  0.89886585     0.25700
C641        C  0.51048338  0.38533450  0.90057936    -0.12000
C642        C  0.53179567  0.40782870  0.91305019    -0.26000
C643        C  0.53719075  0.38219947  0.92374517     0.36600
C644        C  0.52120810  0.33552426  0.92201833    -0.27700
F645        F  0.47358608  0.31753275  0.88681109    -0.19800
H646        H  0.50586846  0.40404187  0.89215581     0.15900
F647        F  0.55817315  0.40196272  0.93591036    -0.23500
H648        H  0.52631436  0.31686367  0.93036569     0.17700
C649        C  0.53726584  0.74355293  0.92350240    -0.27600
C650        C  0.53600474  0.76797515  0.91179608     0.06100
C651        C  0.53241290  0.74876056  0.89857218     0.25700
C652        C  0.52914564  0.70588153  0.89715098    -0.12000
C653        C  0.52872775  0.68043505  0.90883750    -0.26000
C654        C  0.53358382  0.70020705  0.92209244     0.36500
C655        C  0.53604862  0.81218575  0.91325686     0.06100
F656        F  0.52945103  0.77022354  0.88698982    -0.19800
H657        H  0.52526594  0.69193016  0.88679114     0.15900
F658        F  0.53318964  0.67721562  0.93373200    -0.23500
H659        H  0.54041506  0.75778166  0.93379041     0.17700
C660        C  0.50508414  0.81607170  0.92224628     0.25700
C661        C  0.50088788  0.85559022  0.92201896    -0.12000
C662        C  0.52677851  0.89140602  0.91266774    -0.26000
C663        C  0.55941625  0.88859607  0.90423219     0.36600
C664        C  0.56428878  0.84962186  0.90465840    -0.27700
F665        F  0.47638396  0.78035455  0.93046980    -0.19800
H666        H  0.47513867  0.85682355  0.92846987     0.15900
F667        F  0.58567567  0.92303182  0.89526543    -0.23500
H668        H  0.58905390  0.84795240  0.89785480     0.17700
C669        C  0.06217266  0.89745736  0.76540959    -0.27600
C670        C  0.08602729  0.90067291  0.75317295     0.06100
C671        C  0.06334658  0.86798407  0.74263823     0.25700
C672        C  0.01748270  0.83267892  0.74446929    -0.12000
C673        C  0.99346547  0.82954929  0.75680478    -0.26000
C674        C  0.01676430  0.86277355  0.76725081     0.36500
C675        C  0.13396297  0.93948476  0.75179869     0.06100
F676        F  0.08572134  0.86967965  0.73074372    -0.19800
H677        H  0.00086842  0.80775083  0.73625590     0.15900
F678        F  0.99582675  0.86248219  0.77931795    -0.23500
H679        H  0.07872957  0.92259854  0.77358722     0.17700
C680        C  0.14574325  0.97350901  0.74157545     0.25700
C681        C  0.18676298  0.01579228  0.74271488    -0.12000
C682        C  0.21632735  0.02492650  0.75413198    -0.26000
C683        C  0.20648982  0.98914489  0.76357606     0.36600
C684        C  0.16577233  0.94698285  0.76238490    -0.27700
F685        F  0.11558468  0.96776687  0.73131808    -0.19800
H686        H  0.19328929  0.04274997  0.73533878     0.15900
F687        F  0.23475004  0.99589549  0.77450453    -0.23500
H688        H  0.15754928  0.92110262  0.77030879     0.17700
C689        C  0.61875857  0.46310326  0.77044189    -0.27600
C690        C  0.57965460  0.45282653  0.76253595     0.06100
C691        C  0.57922215  0.48810170  0.75472951     0.25700
C692        C  0.61881132  0.53141171  0.75376445    -0.12000
C693        C  0.65901968  0.54066323  0.76088094    -0.26000
C694        C  0.65816124  0.50659069  0.76963652     0.36500
C695        C  0.54285187  0.40418831  0.76075167     0.06100
F696        F  0.54118176  0.47986115  0.74746985    -0.19800
H697        H  0.61866777  0.55714473  0.74700762     0.15900
F698        F  0.69687770  0.51360748  0.77624326    -0.23500
H699        H  0.62000724  0.43641825  0.77642877     0.17700
C700        C  0.53215756  0.38506309  0.74737485     0.25700
C701        C  0.50023613  0.33865307  0.74550549    -0.12000
C702        C  0.47817638  0.30971244  0.75689502    -0.26000
C703        C  0.48864983  0.32883658  0.77035299     0.36600
C704        C  0.52097654  0.37563792  0.77222732    -0.27700
F705        F  0.55428811  0.41082473  0.73608125    -0.19800
H706        H  0.49332203  0.32523186  0.73502385     0.15900
F707        F  0.46893490  0.30221973  0.78170213    -0.23500
H708        H  0.52927684  0.38954697  0.78264160     0.17700
C709        C  0.84422668  0.89599380  0.74663839    -0.27600
C710        C  0.81765305  0.90355524  0.75642167     0.06100
C711        C  0.79106222  0.86825976  0.76593420     0.25700
C712        C  0.79464657  0.82851349  0.76649393    -0.12000
C713        C  0.82368854  0.82242290  0.75734375    -0.26000
C714        C  0.84713746  0.85576877  0.74703225     0.36500
C715        C  0.82141650  0.94966927  0.75747483     0.06100
F716        F  0.76261892  0.87275306  0.77498301    -0.19800
H717        H  0.77591156  0.80310411  0.77443749     0.15900
F718        F  0.87613624  0.85152240  0.73815287    -0.23500
H719        H  0.86500171  0.92249467  0.73919845     0.17700
C720        C  0.83059616  0.97238001  0.77034551     0.25700
C721        C  0.83762920  0.01695314  0.77121762    -0.12000
C722        C  0.83649247  0.04070674  0.75930550    -0.26000
C723        C  0.82690193  0.01787555  0.74640439     0.36600
C724        C  0.81951221  0.97289997  0.74554748    -0.27700
F725        F  0.83539931  0.95258882  0.78204689    -0.19800
H726        H  0.84513991  0.03329675  0.78130919     0.15900
F727        F  0.82622853  0.03935983  0.73454209    -0.23500
H728        H  0.81290576  0.95637470  0.73549652     0.17700
C729        C  0.89660011  0.44857726  0.74716420    -0.27600
C730        C  0.87470046  0.45394863  0.75882564     0.06100
C731        C  0.86270757  0.42280723  0.76990238     0.25700
C732        C  0.86954177  0.38510532  0.76882318    -0.12000
C733        C  0.88756413  0.37736983  0.75659239    -0.26000
C734        C  0.90289002  0.41065001  0.74598963     0.36500
C735        C  0.85834854  0.48750802  0.75827570     0.06100
F736        F  0.84033029  0.42620450  0.78115509    -0.19800
H737        H  0.85706569  0.35992754  0.77710913     0.15900
F738        F  0.92141588  0.40523160  0.73412590    -0.23500
H739        H  0.90643245  0.47249081  0.73857054     0.17700
C740        C  0.86807580  0.52004783  0.76880782     0.25700
C741        C  0.85179012  0.55113967  0.76775496    -0.12000
C742        C  0.82532943  0.55003063  0.75623809    -0.26000
C743        C  0.81502574  0.51655278  0.74587900     0.36600
C744        C  0.83151691  0.48600126  0.74692604    -0.27700
F745        F  0.89414086  0.52248255  0.77990508    -0.19800
H746        H  0.86024889  0.57631699  0.77589901     0.15900
F747        F  0.78898243  0.51298583  0.73464552    -0.23500
H748        H  0.82290929  0.46060270  0.73883051     0.17700
C749        C  0.69829128  0.59353660  0.81954495    -0.27600
C750        C  0.70163683  0.62442869  0.82985417     0.06100
C751        C  0.73770551  0.67020139  0.82927776     0.25700
C752        C  0.76904633  0.68498129  0.81826662    -0.12000
C753        C  0.76505852  0.65433594  0.80768683    -0.26000
C754        C  0.72944516  0.60815496  0.80855051     0.36500
C755        C  0.66716242  0.60826537  0.84110893     0.06100
F756        F  0.74279651  0.70044448  0.83941017    -0.19800
H757        H  0.79616081  0.72058476  0.81794460     0.15900
F758        F  0.72337747  0.57731388  0.79852192    -0.23500
H759        H  0.67067989  0.55812687  0.81983860     0.17700
C760        C  0.63988692  0.62855904  0.84334849     0.25700
C761        C  0.60687388  0.61224298  0.85390199    -0.12000
C762        C  0.60046893  0.57541321  0.86240544    -0.26000
C763        C  0.62733787  0.55457038  0.85988012     0.36600
C764        C  0.66020426  0.57092190  0.84933919    -0.27700
F765        F  0.64459720  0.66357789  0.83516333    -0.19800
H766        H  0.58670876  0.62887114  0.85551253     0.15900
F767        F  0.62217869  0.51844552  0.86758312    -0.23500
H768        H  0.68063149  0.55458958  0.84765357     0.17700
C769        C  0.46720820  0.99719388  0.98723726    -0.27600
C770        C  0.50965767  0.01750703  0.99426796     0.06100
C771        C  0.55019290  0.03348404  0.98647810     0.25700
C772        C  0.54838855  0.03063646  0.97201271    -0.12000
C773        C  0.50622937  0.01119790  0.96494419    -0.26000
C774        C  0.46542739  0.99389758  0.97267022     0.36500
C775        C  0.51219739  0.02166165  0.00967551     0.06100
F776        F  0.59185862  0.05392752  0.99282941    -0.19800
H777        H  0.58028769  0.04517596  0.96624387     0.15900
F778        F  0.42430023  0.97673567  0.96611428    -0.23500
H779        H  0.43552084  0.98434979  0.99302528     0.17700
C780        C  0.49198128  0.04334841  0.01702553     0.25700
C781        C  0.49605140  0.04761562  0.03156412    -0.12000
C782        C  0.51957175  0.02958354  0.03897713    -0.26000
C783        C  0.54004163  0.00836019  0.03154242     0.36600
C784        C  0.53651610  0.00471239  0.01711437    -0.27700
F785        F  0.46832732  0.06032151  0.01016799    -0.19800
H786        H  0.47902924  0.06302405  0.03707006     0.15900
F787        F  0.56270758  0.99005277  0.03828799    -0.23500
H788        H  0.55213126  0.98766288  0.01172805     0.17700
C789        C  0.28991933  0.95536452  0.17671160    -0.27600
C790        C  0.31950575  0.93766897  0.17439788     0.06100
C791        C  0.31709360  0.90361203  0.18342779     0.25700
C792        C  0.28506861  0.88681473  0.19420846    -0.12000
C793        C  0.25499398  0.90396175  0.19652759    -0.26000
C794        C  0.25794798  0.93878245  0.18764401     0.36500
C795        C  0.35240696  0.95413528  0.16252782     0.06100
F796        F  0.34655098  0.88722698  0.18205805    -0.19800
H797        H  0.28429448  0.86045856  0.20087412     0.15900
F798        F  0.23010687  0.95686868  0.18946590    -0.23500
H799        H  0.29118929  0.98170271  0.16992173     0.17700
C800        C  0.35458025  0.92261865  0.15339851     0.25700
C801        C  0.38636985  0.93795520  0.14252697    -0.12000
C802        C  0.41655636  0.98513687  0.14027295    -0.26000
C803        C  0.41397050  0.01682577  0.14932717     0.36600
C804        C  0.38218574  0.00134482  0.16030049    -0.27700
F805        F  0.32506945  0.87682276  0.15475461    -0.19800
H806        H  0.38687928  0.91257011  0.13573887     0.15900
F807        F  0.44199853  0.06274629  0.14763521    -0.23500
H808        H  0.38118903  0.02630483  0.16718356     0.17700
C809        C  0.50077171  0.55390286  0.98571772    -0.27600
C810        C  0.49076307  0.51154301  0.99155684     0.06100
C811        C  0.47887104  0.47376278  0.98296400     0.25700
C812        C  0.47969740  0.47892449  0.96862708    -0.12000
C813        C  0.49267158  0.52192057  0.96262543    -0.26000
C814        C  0.50166817  0.55917820  0.97126153     0.36500
C815        C  0.49343611  0.50670772  0.00660975     0.06100
F816        F  0.46852481  0.43244567  0.98845376    -0.19800
H817        H  0.47254211  0.44971629  0.96215715     0.15900
F818        F  0.51482793  0.60122007  0.96579483    -0.23500
H819        H  0.50951638  0.58316521  0.99235070     0.17700
C820        C  0.53448110  0.51439823  0.01289687     0.25700
C821        C  0.53692418  0.51141120  0.02734180    -0.12000
C822        C  0.49842403  0.50084287  0.03554945    -0.26000
C823        C  0.45661594  0.49023452  0.02905482     0.36600
C824        C  0.45431225  0.49329376  0.01469338    -0.27700
F825        F  0.57240459  0.52622559  0.00509659    -0.19800
H826        H  0.56943196  0.51997539  0.03213896     0.15900
F827        F  0.41828834  0.47841154  0.03666154    -0.23500
H828        H  0.42223203  0.48616489  0.00988170     0.17700
C829        C  0.55676964  0.76338648  0.10546283    -0.27600
C830        C  0.54963906  0.78727748  0.09465397     0.06100
C831        C  0.54292767  0.76954776  0.08111007     0.25700
C832        C  0.54212093  0.72831901  0.07850622    -0.12000
C833        C  0.54749463  0.70315121  0.08931836    -0.26000
C834        C  0.55587982  0.72175911  0.10285969     0.36500
C835        C  0.54523935  0.82848939  0.09734323     0.06100
F836        F  0.53419473  0.79063771  0.07046065    -0.19800
H837        H  0.53520719  0.71516672  0.06799599     0.15900
F838        F  0.56210272  0.69939151  0.11364626    -0.23500
H839        H  0.56215598  0.77655330  0.11596502     0.17700
C840        C  0.51074194  0.82590433  0.10621904     0.25700
C841        C  0.49779879  0.85966711  0.10560605    -0.12000
C842        C  0.51898464  0.89612014  0.09611055    -0.26000
C843        C  0.55704681  0.90147337  0.08849870     0.36600
C844        C  0.57003789  0.86795460  0.08914548    -0.27700
F845        F  0.48632625  0.78844484  0.11436927    -0.19800
H846        H  0.46847382  0.85498045  0.11158484     0.15900
F847        F  0.57962296  0.93754034  0.07969608    -0.23500
H848        H  0.59737079  0.87112521  0.08245635     0.17700
C849        C  0.45423867  0.28686454  0.09544475    -0.27600
C850        C  0.48054664  0.27541445  0.08670685     0.06100
C851        C  0.51164413  0.30905937  0.07741197     0.25700
C852        C  0.51804826  0.35369403  0.07754115    -0.12000
C853        C  0.49430652  0.36571477  0.08708587    -0.26000
C854        C  0.46149474  0.33162918  0.09580260     0.36500
C855        C  0.47879190  0.23033197  0.08843732     0.06100
F856        F  0.53840029  0.29996779  0.06895769    -0.19800
H857        H  0.54381689  0.37966773  0.07083813     0.15900
F858        F  0.43738382  0.34203438  0.10496645    -0.23500
H859        H  0.42920490  0.26147575  0.10243885     0.17700
C860        C  0.48102714  0.21458894  0.10180202     0.25700
C861        C  0.48306859  0.17441348  0.10352725    -0.12000
C862        C  0.48400657  0.14900472  0.09203882    -0.26000
C863        C  0.48019203  0.16374605  0.07864745     0.36600
C864        C  0.47742429  0.20390646  0.07691065    -0.27700
F865        F  0.48427803  0.23954983  0.11326000    -0.19800
H866        H  0.48605974  0.16438367  0.11399533     0.15900
F867        F  0.48153263  0.14091024  0.06721331    -0.23500
H868        H  0.47521359  0.21490731  0.06651105     0.17700
C869        C  0.86221557  0.79949567  0.23440425    -0.27600
C870        C  0.87986108  0.80205822  0.24777444     0.06100
C871        C  0.85630844  0.80687802  0.25916639     0.25700
C872        C  0.81796278  0.81248948  0.25701463    -0.12000
C873        C  0.80248258  0.81330011  0.24348452    -0.26000
C874        C  0.82403405  0.80464433  0.23223801     0.36500
C875        C  0.92583951  0.80590435  0.24919829     0.06100
F876        F  0.87115756  0.80753508  0.27231687    -0.19800
H877        H  0.80187629  0.81845401  0.26588577     0.15900
F878        F  0.80991803  0.80346290  0.21895191    -0.23500
H879        H  0.87971693  0.79627892  0.22541385     0.17700
C880        C  0.93736487  0.77790721  0.24124290     0.25700
C881        C  0.98334336  0.78953056  0.23967313    -0.12000
C882        C  0.01847678  0.82824756  0.24637018    -0.26000
C883        C  0.00678028  0.85384711  0.25530330     0.36600
C884        C  0.96088793  0.84298984  0.25658460    -0.27700
F885        F  0.90429131  0.74032459  0.23454496    -0.19800
H886        H  0.99165115  0.76875000  0.23300661     0.15900
F887        F  0.04003652  0.89147987  0.26192496    -0.23500
H888        H  0.95321696  0.86548663  0.26263044     0.17700
C889        C  0.40677471  0.86827447  0.22968485    -0.27600
C890        C  0.42381763  0.85286635  0.24050578     0.06100
C891        C  0.39844287  0.83701684  0.25285077     0.25700
C892        C  0.35776628  0.83776467  0.25450158    -0.12000
C893        C  0.34053980  0.85361545  0.24384776    -0.26000
C894        C  0.36538441  0.86864987  0.23129864     0.36500
C895        C  0.46766773  0.85260475  0.23927507     0.06100
F896        F  0.41243811  0.81962693  0.26329267    -0.19800
H897        H  0.33952663  0.82532706  0.26422316     0.15900
F898        F  0.34967287  0.88318411  0.22056482    -0.23500
H899        H  0.42567394  0.88033323  0.22005224     0.17700
C900        C  0.47535168  0.82907418  0.22846287     0.25700
C901        C  0.51165832  0.81980935  0.22942926    -0.12000
C902        C  0.54003783  0.83346602  0.24123525    -0.26000
C903        C  0.53472618  0.86049283  0.25135661     0.36600
C904        C  0.49933097  0.87049242  0.25024644    -0.27700
F905        F  0.44565885  0.81170941  0.21762807    -0.19800
H906        H  0.51539271  0.79904265  0.22150964     0.15900
F907        F  0.56239158  0.87527301  0.26271212    -0.23500
H908        H  0.49473758  0.88972712  0.25849537     0.17700
C909        C  0.62843451  0.65678543  0.15041036    -0.27600
C910        C  0.59695873  0.66132332  0.15894904     0.06100
C911        C  0.54963682  0.63423727  0.15600981     0.25700
C912        C  0.53453804  0.60438474  0.14465599    -0.12000
C913        C  0.56597929  0.59964233  0.13628378    -0.26000
C914        C  0.61316166  0.62578708  0.13931868     0.36500
C915        C  0.61348237  0.69431228  0.17079033     0.06100
F916        F  0.51773683  0.63571199  0.16427780    -0.19800
H917        H  0.49804474  0.58433757  0.14251615     0.15900
F918        F  0.64464566  0.62283204  0.13122171    -0.23500
H919        H  0.66504832  0.67784296  0.15215357     0.17700
C920        C  0.64904724  0.69864656  0.17957800     0.25700
C921        C  0.66368715  0.72931778  0.19073530    -0.12000
C922        C  0.64243246  0.75526704  0.19363808    -0.26000
C923        C  0.60698207  0.75110195  0.18494246     0.36600
C924        C  0.59332662  0.72158112  0.17349137    -0.27700
F925        F  0.66857494  0.67206989  0.17775620    -0.19800
H926        H  0.69074059  0.73166242  0.19742734     0.15900
F927        F  0.58621514  0.77624709  0.18734401    -0.23500
H928        H  0.56691198  0.72014980  0.16670852     0.17700
C929        C  0.22414030  0.16804884  0.23967550    -0.27600
C930        C  0.19640777  0.13055179  0.24838516     0.06100
C931        C  0.16390906  0.13366663  0.25691027     0.25700
C932        C  0.15759026  0.17192830  0.25602425    -0.12000
C933        C  0.18282859  0.20733547  0.24648482    -0.26000
C934        C  0.21695818  0.20561651  0.23854958     0.36500
C935        C  0.19779979  0.08667978  0.24727731     0.06100
F936        F  0.13584636  0.09834796  0.26535326    -0.19800
H937        H  0.13098100  0.17257117  0.26219596     0.15900
F938        F  0.24273829  0.23990585  0.22948746    -0.23500
H939        H  0.25035943  0.16747781  0.23329562     0.17700
C940        C  0.19773606  0.06841368  0.23412206     0.25700
C941        C  0.19356981  0.02506602  0.23286106    -0.12000
C942        C  0.18885042  0.99803253  0.24459268    -0.26000
C943        C  0.19138764  0.01708417  0.25782249     0.36600
C944        C  0.19581296  0.06094329  0.25911096    -0.27700
F945        F  0.19848300  0.09096151  0.22233457    -0.19800
H946        H  0.19210020  0.01179992  0.22251677     0.15900
F947        F  0.18703018  0.99250757  0.26947897    -0.23500
H948        H  0.19654732  0.07431046  0.26938468     0.17700
C949        C  0.11172495  0.54952348  0.25133683    -0.27600
C950        C  0.12274775  0.57059879  0.23822197     0.06100
C951        C  0.13050360  0.54778614  0.22720525     0.25700
C952        C  0.13073765  0.50667694  0.22960680    -0.12000
C953        C  0.12325151  0.48754937  0.24302535    -0.26000
C954        C  0.11156148  0.50844886  0.25372678     0.36500
C955        C  0.13183107  0.61863110  0.23683223     0.06100
F956        F  0.13940622  0.56601626  0.21423536    -0.19800
H957        H  0.13917400  0.49118602  0.22109206     0.15900
F958        F  0.10212161  0.49058939  0.26674372    -0.23500
H959        H  0.10590825  0.56628692  0.26005562     0.17700
C960        C  0.10314836  0.63249505  0.24332309     0.25700
C961        C  0.11783140  0.67921239  0.24498558    -0.12000
C962        C  0.16060498  0.71286730  0.23984173    -0.26000
C963        C  0.18756643  0.69920134  0.23232595     0.36600
C964        C  0.17338102  0.65248265  0.23092383    -0.27700
F965        F  0.06185186  0.60090416  0.24862791    -0.19800
H966        H  0.09655028  0.68919224  0.25076021     0.15900
F967        F  0.22964243  0.73098900  0.22754616    -0.23500
H968        H  0.19655889  0.64300798  0.22609541     0.17700
C969        C  0.86429736  0.05548970  0.25653253    -0.27600
C970        C  0.89222401  0.07846696  0.24504229     0.06100
C971        C  0.88266726  0.05510076  0.23228771     0.25700
C972        C  0.84517710  0.01085243  0.23093671    -0.12000
C973        C  0.81651443  0.98779422  0.24230101    -0.26000
C974        C  0.82685374  0.01057842  0.25522913     0.36500
C975        C  0.93240281  0.12585197  0.24630276     0.06100
F976        F  0.91064408  0.07432008  0.22116597    -0.19800
H977        H  0.83925475  0.99434144  0.22090203     0.15900
F978        F  0.80115514  0.98962001  0.26662653    -0.23500
H979        H  0.87137195  0.07243428  0.26652346     0.17700
C980        C  0.94089748  0.15915883  0.23607001     0.25700
C981        C  0.98311395  0.19997884  0.23559923    -0.12000
C982        C  0.01720719  0.20923425  0.24555453    -0.26000
C983        C  0.00685151  0.17842171  0.25670088     0.36600
C984        C  0.96486814  0.13687943  0.25698495    -0.27700
F985        F  0.90904580  0.15142005  0.22616076    -0.19800
H986        H  0.98996518  0.22358381  0.22706746     0.15900
F987        F  0.03879903  0.18638349  0.26659931    -0.23500
H988        H  0.95899728  0.11212119  0.26507476     0.17700
C989        C  0.36320945  0.54127641  0.25569345    -0.27600
C990        C  0.38621073  0.54119242  0.24360528     0.06100
C991        C  0.36159860  0.50940218  0.23306029     0.25700
C992        C  0.31424386  0.47902940  0.23451451    -0.12000
C993        C  0.29076281  0.47997864  0.24650410    -0.26000
C994        C  0.31622288  0.51126926  0.25718740     0.36500
C995        C  0.43502420  0.57694564  0.24198074     0.06100
F996        F  0.38340553  0.50762547  0.22143389    -0.19800
H997        H  0.29597194  0.45492531  0.22623395     0.15900
F998        F  0.29591706  0.51371550  0.26907771    -0.23500
H999        H  0.38157982  0.56572767  0.26390008     0.17700
C1000       C  0.44826403  0.61023055  0.23146434     0.25700
C1001       C  0.49168729  0.64979801  0.23184941    -0.12000
C1002       C  0.52208630  0.65702102  0.24284372    -0.26000
C1003       C  0.51004111  0.62218386  0.25279622     0.36600
C1004       C  0.46686170  0.58248264  0.25233290    -0.27700
F1005       F  0.41765866  0.60670469  0.22163660    -0.19800
H1006       H  0.49999434  0.67650773  0.22420574     0.15900
F1007       F  0.53912347  0.62762376  0.26336550    -0.23500
H1008       H  0.45722176  0.55716074  0.26051560     0.17700
C1009       C  0.05328064  0.57175486  0.01683432    -0.27600
C1010       C  0.01704982  0.54120726  0.00837039     0.06100
C1011       C  0.97618110  0.50708638  0.01458401     0.25700
C1012       C  0.97260121  0.50261227  0.02910098    -0.12000
C1013       C  0.00967057  0.53221484  0.03760973    -0.26000
C1014       C  0.04968685  0.56776480  0.03125907     0.36500
C1015       C  0.02262117  0.54467636  0.99308273     0.06100
F1016       F  0.94059404  0.47680154  0.00659004    -0.19800
H1017       H  0.94165652  0.47488546  0.03363907     0.15900
F1018       F  0.08607703  0.59834978  0.03895490    -0.23500
H1019       H  0.08469760  0.59860654  0.01223001     0.17700
C1020       C  0.99506534  0.55580213  0.98488161     0.25700
C1021       C  0.99785708  0.55537556  0.97042324    -0.12000
C1022       C  0.02829805  0.54404573  0.96382404    -0.26000
C1023       C  0.05798906  0.53571594  0.97204935     0.36600
C1024       C  0.05514802  0.53614715  0.98659351    -0.27700
F1025       F  0.96490664  0.56631892  0.99086936    -0.19800
H1026       H  0.97481903  0.56226710  0.96432648     0.15900
F1027       F  0.08713132  0.52380053  0.96609101    -0.23500
H1028       H  0.07700142  0.52792937  0.99280625     0.17700
C1029       C  0.21765659  0.47802317  0.10155828    -0.27600
C1030       C  0.23768565  0.47117104  0.08969525     0.06100
C1031       C  0.21063398  0.45318425  0.07769104     0.25700
C1032       C  0.16666839  0.44785557  0.07703436    -0.12000
C1033       C  0.14844998  0.45991620  0.08836150    -0.26000
C1034       C  0.17332845  0.47229655  0.10096231     0.36500
C1035       C  0.28814610  0.48951766  0.08910164     0.06100
F1036       F  0.22799363  0.44375403  0.06624586    -0.19800
H1037       H  0.14814495  0.43711262  0.06729264     0.15900
F1038       F  0.15677618  0.48277941  0.11236959    -0.23500
H1039       H  0.23763866  0.49126212  0.11097988     0.17700
C1040       C  0.31398210  0.52132557  0.07870291     0.25700
C1041       C  0.36134845  0.53973554  0.07800348    -0.12000
C1042       C  0.38475865  0.52732908  0.08765630    -0.26000
C1043       C  0.35914177  0.49613830  0.09831098     0.36600
C1044       C  0.31120592  0.47764072  0.09904290    -0.27700
F1045       F  0.29352541  0.53562851  0.06933066    -0.19800
H1046       H  0.37975902  0.56404324  0.06977699     0.15900
F1047       F  0.38002096  0.48268950  0.10778419    -0.23500
H1048       H  0.29198967  0.45356957  0.10723829     0.17700
C1049       C  0.71226151  0.50974606  0.07415016    -0.27600
C1050       C  0.74572659  0.53185715  0.08450904     0.06100
C1051       C  0.73819777  0.55692437  0.09482943     0.25700
C1052       C  0.69639793  0.55643174  0.09548742    -0.12000
C1053       C  0.66145971  0.53146958  0.08578059    -0.26000
C1054       C  0.67031597  0.50946735  0.07476086     0.36500
C1055       C  0.78550125  0.52412472  0.08566622     0.06100
F1056       F  0.77044078  0.57989884  0.10473304    -0.19800
H1057       H  0.69036657  0.57366364  0.10404085     0.15900
F1058       F  0.63688694  0.48396911  0.06541715    -0.23500
H1059       H  0.71734029  0.49010739  0.06614476     0.17700
C1060       C  0.79095067  0.50374180  0.09771578     0.25700
C1061       C  0.82869738  0.49728828  0.09920893    -0.12000
C1062       C  0.86208277  0.51062123  0.08869794    -0.26000
C1063       C  0.85591008  0.52998711  0.07641404     0.36600
C1064       C  0.81784901  0.53650225  0.07494251    -0.27700
F1065       F  0.75911378  0.48920402  0.10799833    -0.19800
H1066       H  0.83154335  0.48155555  0.10869476     0.15900
F1067       F  0.88630900  0.54242746  0.06579299    -0.23500
H1068       H  0.81389559  0.55172100  0.06549779     0.17700
C1069       C  0.18047012  0.69886264  0.09998815    -0.27600
C1070       C  0.22226123  0.71426354  0.09299361     0.06100
C1071       C  0.22951632  0.68288693  0.08537586     0.25700
C1072       C  0.19459192  0.63743964  0.08410043    -0.12000
C1073       C  0.15174883  0.62216073  0.09044703    -0.26000
C1074       C  0.14525159  0.65296990  0.09874924     0.36500
C1075       C  0.25744590  0.76339123  0.09269277     0.06100
F1076       F  0.27022807  0.69655495  0.07890698    -0.19800
H1077       H  0.20089472  0.61424481  0.07790729     0.15900
F1078       F  0.10431845  0.63951786  0.10502382    -0.23500
H1079       H  0.17453857  0.72277019  0.10592802     0.17700
C1080       C  0.27037878  0.78644502  0.07990922     0.25700
C1081       C  0.30819143  0.83056355  0.07911053    -0.12000
C1082       C  0.33388559  0.85260638  0.09102596    -0.26000
C1083       C  0.31940015  0.83057229  0.10398310     0.36600
C1084       C  0.28120356  0.78615851  0.10478426    -0.27700
F1085       F  0.24743982  0.76544762  0.06809044    -0.19800
H1086       H  0.31845151  0.84691838  0.06903304     0.15900
F1087       F  0.34411043  0.85030377  0.11564516    -0.23500
H1088       H  0.27170986  0.76859753  0.11469518     0.17700
C1089       C  0.71424564  0.20832195  0.07558531    -0.27600
C1090       C  0.74277929  0.23155878  0.08691768     0.06100
C1091       C  0.72572549  0.21733986  0.10043087     0.25700
C1092       C  0.68145746  0.18043237  0.10253477    -0.12000
C1093       C  0.65258170  0.15694909  0.09125866    -0.26000
C1094       C  0.66965995  0.17131100  0.07767396     0.36500
C1095       C  0.78922474  0.27223330  0.08481844     0.06100
F1096       F  0.75115644  0.24045753  0.11167448    -0.19800
H1097       H  0.66952998  0.17090855  0.11310390     0.15900
F1098       F  0.64329883  0.15023472  0.06637768    -0.23500
H1099       H  0.72650220  0.21896920  0.06509137     0.17700
C1100       C  0.82744065  0.27623397  0.09207972     0.25700
C1101       C  0.86858724  0.31821651  0.09247866    -0.12000
C1102       C  0.87286181  0.35666468  0.08536529    -0.26000
C1103       C  0.83617009  0.35148177  0.07698357     0.36600
C1104       C  0.79465755  0.30954266  0.07675529    -0.27700
F1105       F  0.82425518  0.24009783  0.09934548    -0.19800
H1106       H  0.89645500  0.32136607  0.09893775     0.15900
F1107       F  0.83867917  0.38811654  0.07019060    -0.23500
H1108       H  0.76575303  0.30723933  0.07105346     0.17700
C1109       C  0.02648952  0.40933398  0.15936196    -0.27600
C1110       C  0.07383404  0.42609997  0.16092879     0.06100
C1111       C  0.10432652  0.45853383  0.15133644     0.25700
C1112       C  0.08760158  0.47336599  0.14035929    -0.12000
C1113       C  0.04009055  0.45600949  0.13857761    -0.26000
C1114       C  0.00967016  0.42417866  0.14837979     0.36500
C1115       C  0.09094083  0.40938869  0.17254008     0.06100
F1116       F  0.15021717  0.47466046  0.15226078    -0.19800
H1117       H  0.11203925  0.49782166  0.13304950     0.15900
F1118       F  0.96363662  0.40694303  0.14733896    -0.23500
H1119       H  0.00242191  0.38466677  0.16671334     0.17700
C1120       C  0.12452085  0.44036245  0.18178400     0.25700
C1121       C  0.13926160  0.42416662  0.19293138    -0.12000
C1122       C  0.12086400  0.37669747  0.19519233    -0.26000
C1123       C  0.08751454  0.34570814  0.18579449     0.36600
C1124       C  0.07277233  0.36202856  0.17464419    -0.27700
F1125       F  0.14180256  0.48631835  0.18037210    -0.19800
H1126       H  0.16453999  0.44904241  0.19999024     0.15900
F1127       F  0.06848094  0.29961576  0.18743813    -0.23500
H1128       H  0.04694267  0.33755619  0.16762144     0.17700
C1129       C  0.85898735  0.65635748  0.68445573    -0.27600
C1130       C  0.85588820  0.68940995  0.67647551     0.06100
C1131       C  0.85453429  0.72606040  0.68310680     0.25700
C1132       C  0.85437799  0.72822779  0.69766484    -0.12000
C1133       C  0.85581090  0.69397690  0.70568050    -0.26000
C1134       C  0.85935017  0.65866698  0.69887593     0.36500
C1135       C  0.85580331  0.68572339  0.66123260     0.06100
F1136       F  0.85178277  0.75868271  0.67551318    -0.19800
H1137       H  0.85122098  0.75542829  0.70263544     0.15900
F1138       F  0.86255130  0.62575845  0.70617452    -0.23500
H1139       H  0.86112621  0.62858291  0.67946872     0.17700
C1140       C  0.89466443  0.71636197  0.65366543     0.25700
C1141       C  0.89543902  0.71196123  0.63930703    -0.12000
C1142       C  0.85734916  0.67706806  0.63215534    -0.26000
C1143       C  0.81883824  0.64535590  0.63982338     0.36600
C1144       C  0.81828805  0.64964354  0.65429719    -0.27700
F1145       F  0.93205595  0.75030009  0.66020357    -0.19800
H1146       H  0.92578082  0.73669586  0.63372524     0.15900
F1147       F  0.78120467  0.61157713  0.63334590    -0.23500
H1148       H  0.78833906  0.62526018  0.66010009     0.17700
C1149       C  0.70313473  0.84385536  0.31772068    -0.27600
C1150       C  0.67296375  0.85563726  0.32420869     0.06100
C1151       C  0.64864679  0.87094208  0.31606619     0.25700
C1152       C  0.65260340  0.87206630  0.30160271    -0.12000
C1153       C  0.68148572  0.85870752  0.29498194    -0.26000
C1154       C  0.70767048  0.84563185  0.30320782     0.36500
C1155       C  0.66749564  0.85249585  0.33948432     0.06100
F1156       F  0.61992393  0.88331454  0.32209020    -0.19800
H1157       H  0.63192083  0.88213443  0.29550880     0.15900
F1158       F  0.73521181  0.83172054  0.29721365    -0.23500
H1159       H  0.72254833  0.83248560  0.32391199     0.17700
C1160       C  0.63954816  0.81008089  0.34610235     0.25700
C1161       C  0.63875942  0.80700350  0.36066190    -0.12000
C1162       C  0.66615578  0.84616668  0.36872570    -0.26000
C1163       C  0.69155914  0.88901191  0.36203299     0.36600
C1164       C  0.69203850  0.89205432  0.34755985    -0.27700
F1165       F  0.61460015  0.77146028  0.33846347    -0.19800
H1166       H  0.61946316  0.77363314  0.36555948     0.15900
F1167       F  0.71805926  0.92766108  0.36951687    -0.23500
H1168       H  0.71324002  0.92505208  0.34261894     0.17700
C1169       C  0.74540366  0.68874942  0.50900997    -0.27600
C1170       C  0.75765275  0.73490283  0.50709405     0.06100
C1171       C  0.78573713  0.76759557  0.51699353     0.25700
C1172       C  0.80185691  0.75442868  0.52848391    -0.12000
C1173       C  0.79006227  0.70829186  0.53045029    -0.26000
C1174       C  0.76152441  0.67542567  0.52053120     0.36500
C1175       C  0.74223043  0.74920917  0.49459557     0.06100
F1176       F  0.79697269  0.81225134  0.51565763    -0.19800
H1177       H  0.82339765  0.78052828  0.53591947     0.15900
F1178       F  0.74945254  0.63053318  0.52183801    -0.23500
H1179       H  0.72391334  0.66312824  0.50143763     0.17700
C1180       C  0.77456620  0.78230102  0.48554900     0.25700
C1181       C  0.76012473  0.79645093  0.47388485    -0.12000
C1182       C  0.71307979  0.77789343  0.47092692    -0.26000
C1183       C  0.68063130  0.74452350  0.48003735     0.36600
C1184       C  0.69524955  0.73024058  0.49170131    -0.27700
F1185       F  0.82026001  0.80029092  0.48785543    -0.19800
H1186       H  0.78603160  0.82192957  0.46711088     0.15900
F1187       F  0.63483252  0.72544072  0.47770441    -0.23500
H1188       H  0.66985774  0.70469266  0.49858721     0.17700
C1189       C  0.30646672  0.17938075  0.65131104    -0.27600
C1190       C  0.34412429  0.18636619  0.65934521     0.06100
C1191       C  0.38479213  0.19463218  0.65259206     0.25700
C1192       C  0.38779107  0.19695847  0.63804385    -0.12000
C1193       C  0.35020434  0.19070884  0.62997541    -0.26000
C1194       C  0.30924453  0.18151082  0.63685501     0.36500
C1195       C  0.34111048  0.18703155  0.67472159     0.06100
F1196       F  0.42126209  0.19949156  0.66006106    -0.19800
H1197       H  0.41922978  0.20291000  0.63309781     0.15900
F1198       F  0.27145575  0.17449149  0.62967553    -0.23500
H1199       H  0.27490645  0.17305528  0.65627389     0.17700
C1200       C  0.37382761  0.22513488  0.68224854     0.25700
C1201       C  0.37126040  0.22591394  0.69668267    -0.12000
C1202       C  0.33599479  0.18882579  0.70402400    -0.26000
C1203       C  0.30202499  0.15134756  0.69647614     0.36600
C1204       C  0.30458704  0.15063024  0.68192937    -0.27700
F1205       F  0.40812829  0.26196850  0.67562247    -0.19800
H1206       H  0.39766908  0.25550514  0.70216813     0.15900
F1207       F  0.26773540  0.11460107  0.70313211    -0.34300
H1208       H  0.27865440  0.12113111  0.67629531     0.17700
C1209       C  0.14177257  0.92435843  0.58535349    -0.27600
C1210       C  0.11839053  0.91620490  0.57261936     0.06100
C1211       C  0.14038848  0.94716902  0.56159559     0.25700
C1212       C  0.18345581  0.98651102  0.56361603    -0.12000
C1213       C  0.20530307  0.99582599  0.57664269    -0.26000
C1214       C  0.18477074  0.96330648  0.58732858     0.36500
C1215       C  0.06980305  0.87795991  0.57160661     0.06100
F1216       F  0.11983794  0.94018535  0.54899290    -0.19800
H1217       H  0.19847955  0.01097531  0.55519486     0.15900
F1218       F  0.20538553  0.96999660  0.59991556    -0.23500
H1219       H  0.12574304  0.90179110  0.59412790     0.17700
C1220       C  0.05598762  0.83535290  0.57808797     0.25700
C1221       C  0.00937812  0.80363256  0.57993330    -0.12000
C1222       C  0.97565970  0.81276068  0.57484122    -0.26000
C1223       C  0.98901796  0.85313479  0.56722428     0.36600
C1224       C  0.03574159  0.88574540  0.56578469    -0.27700
F1225       F  0.08754404  0.82499684  0.58309369    -0.19800
H1226       H  0.99952332  0.77237113  0.58571313     0.15900
F1227       F  0.95693150  0.86269924  0.56218433    -0.23500
H1228       H  0.04500848  0.91825409  0.56088466     0.17700
C1229       C  0.63943393  0.48225444  0.59243587    -0.27600
C1230       C  0.61015739  0.46873506  0.58080476     0.06100
C1231       C  0.62232674  0.49906052  0.56948278     0.25700
C1232       C  0.66490563  0.53954039  0.56922093    -0.12000
C1233       C  0.69627903  0.55099239  0.58025132    -0.26000
C1234       C  0.68222565  0.52310956  0.59219843     0.36500
C1235       C  0.57073152  0.42088815  0.57966536     0.06100
F1236       F  0.59413088  0.48821290  0.55829836    -0.19800
H1237       H  0.67453062  0.56070962  0.55996993     0.15900
F1238       F  0.71145524  0.53284290  0.60305278    -0.23500
H1239       H  0.63066957  0.45952764  0.60129657     0.17700
C1240       C  0.56901949  0.39289130  0.56858348     0.25700
C1241       C  0.53353371  0.34731624  0.56764107    -0.12000
C1242       C  0.49847298  0.32797712  0.57768983    -0.26000
C1243       C  0.49989286  0.35624141  0.58876355     0.36600
C1244       C  0.53593918  0.40208680  0.58976339    -0.27700
F1245       F  0.60268999  0.40916551  0.55884104    -0.19800
H1246       H  0.53400155  0.32697083  0.55900152     0.15900
F1247       F  0.46651065  0.33991323  0.59858020    -0.23500
H1248       H  0.53658050  0.42304046  0.59839004     0.17700
C1249       C  0.18380238  0.87576252  0.32014409    -0.27600
C1250       C  0.15817915  0.83260099  0.32661735     0.06100
C1251       C  0.12735033  0.79476224  0.31853852     0.25700
C1252       C  0.12463113  0.79947115  0.30422132    -0.12000
C1253       C  0.15208282  0.84191461  0.29764578    -0.26000
C1254       C  0.18082451  0.88046713  0.30575961     0.36500
C1255       C  0.16406361  0.82688731  0.34167973     0.06100
F1256       F  0.10217572  0.75244859  0.32430035    -0.19800
H1257       H  0.10293192  0.76916619  0.29810058     0.15900
F1258       F  0.20890316  0.92159556  0.29965549    -0.23500
H1259       H  0.20713901  0.90559789  0.32618277     0.17700
C1260       C  0.20803381  0.84407310  0.34764526     0.25700
C1261       C  0.21287483  0.84058967  0.36200653    -0.12000
C1262       C  0.17403373  0.82024003  0.37061084    -0.26000
C1263       C  0.13013582  0.80090069  0.36453335     0.36600
C1264       C  0.12529489  0.80422212  0.35025009    -0.27700
F1265       F  0.24631240  0.86498151  0.33963654    -0.19800
H1266       H  0.24698937  0.85640184  0.36649695     0.15900
F1267       F  0.09182816  0.78070244  0.37255698    -0.23500
H1268       H  0.09111073  0.79068744  0.34596527     0.17700
C1269       C  0.98720050  0.80363330  0.41948820    -0.27600
C1270       C  0.97473909  0.82715800  0.42896209     0.06100
C1271       C  0.00808021  0.85914185  0.43809005     0.25700
C1272       C  0.05405121  0.87001729  0.43688161    -0.12000
C1273       C  0.06692393  0.84951422  0.42645385    -0.26000
C1274       C  0.03291750  0.81493144  0.41813793     0.36500
C1275       C  0.92964312  0.82423449  0.42725759     0.06100
F1276       F  0.99705161  0.88283959  0.44722054    -0.19800
H1277       H  0.07999466  0.89699227  0.44329754     0.15900
F1278       F  0.04439177  0.79404319  0.40812505    -0.23500
H1279       H  0.96187741  0.77877574  0.41242408     0.17700
C1280       C  0.91935130  0.83711161  0.41449015     0.25700
C1281       C  0.87713912  0.83436037  0.41239490    -0.12000
C1282       C  0.84396966  0.81905359  0.42298546    -0.26000
C1283       C  0.85412802  0.80590342  0.43584155     0.36600
C1284       C  0.89692349  0.80876876  0.43795352    -0.27700
F1285       F  0.95077453  0.85350823  0.40407965    -0.19800
H1286       H  0.87076849  0.84492663  0.40240085     0.15900
F1287       F  0.82341695  0.79134854  0.44641942    -0.23500
H1288       H  0.90447596  0.79878957  0.44787147     0.17700
C1289       C  0.48919226  0.86439755  0.43132791    -0.27600
C1290       C  0.47214317  0.86406430  0.41797643     0.06100
C1291       C  0.49496715  0.85883550  0.40646922     0.25700
C1292       C  0.53267762  0.85212243  0.40843158    -0.12000
C1293       C  0.54848647  0.85061699  0.42187474    -0.26000
C1294       C  0.52684906  0.85808070  0.43329803     0.36500
C1295       C  0.42966352  0.86748454  0.41657271     0.06100
F1296       F  0.48106063  0.86037787  0.39334611    -0.19800
H1297       H  0.54878506  0.84698153  0.39941293     0.15900
F1298       F  0.54151998  0.85873571  0.44647740    -0.23500
H1299       H  0.47243510  0.86831187  0.44039539     0.17700
C1300       C  0.39175483  0.83551566  0.40864649     0.25700
C1301       C  0.34925127  0.83384132  0.40968155    -0.12000
C1302       C  0.34352594  0.86306857  0.41886165    -0.26000
C1303       C  0.38186826  0.89659094  0.42613948     0.36600
C1304       C  0.42453639  0.89915838  0.42483246    -0.27700
F1305       F  0.39436304  0.80307081  0.40095178    -0.19800
H1306       H  0.31984584  0.80708209  0.40421227     0.15900
F1307       F  0.37745453  0.92534663  0.43507882    -0.23500
H1308       H  0.45315579  0.92443272  0.43091903     0.17700
C1309       C  0.29467599  0.96109817  0.49336222    -0.27600
C1310       C  0.28105324  0.99426142  0.49473307     0.06100
C1311       C  0.25184751  0.99617568  0.48461216     0.25700
C1312       C  0.23700190  0.96585378  0.47334717    -0.12000
C1313       C  0.25090116  0.93284599  0.47181707    -0.26000
C1314       C  0.27967239  0.93051694  0.48209201     0.36500
C1315       C  0.29781654  0.02710740  0.50659241     0.06100
F1316       F  0.23887872  0.02847059  0.48534048    -0.19800
H1317       H  0.21518587  0.96895072  0.46564011     0.15900
F1318       F  0.29331524  0.89875057  0.48131858    -0.23500
H1319       H  0.31685780  0.95875188  0.50109929     0.17700
C1320       C  0.26683701  0.03203788  0.51521780     0.25700
C1321       C  0.28294249  0.06318837  0.52627314    -0.12000
C1322       C  0.33034213  0.09025604  0.52907983    -0.26000
C1323       C  0.36138574  0.08544011  0.52036275     0.36600
C1324       C  0.34513754  0.05402296  0.50930671    -0.27700
F1325       F  0.22081111  0.00573633  0.51321819    -0.19800
H1326       H  0.25793777  0.06551074  0.53279089     0.15900
F1327       F  0.40739719  0.11080958  0.52249924    -0.23500
H1328       H  0.36963783  0.05096795  0.50274781     0.17700
C1329       C  0.17466721  0.30197658  0.34971422    -0.27600
C1330       C  0.18432867  0.34113762  0.34206719     0.06100
C1331       C  0.19648418  0.38238264  0.34916527     0.25700
C1332       C  0.19934415  0.38416941  0.36371603    -0.12000
C1333       C  0.19028261  0.34493549  0.37138449    -0.26000
C1334       C  0.17763929  0.30362168  0.36413801     0.36500
C1335       C  0.18207675  0.33840085  0.32670801     0.06100
F1336       F  0.20458580  0.42060818  0.34204587    -0.19800
H1337       H  0.20840881  0.41608746  0.36896638     0.15900
F1338       F  0.16756620  0.26421763  0.37091785    -0.23500
H1339       H  0.16526936  0.26995316  0.34446378     0.17700
C1340       C  0.21979586  0.36925816  0.31868826     0.25700
C1341       C  0.21681383  0.36780935  0.30424196    -0.12000
C1342       C  0.17642265  0.33525157  0.29746586    -0.26000
C1343       C  0.13964383  0.30243042  0.30544202     0.36600
C1344       C  0.14252522  0.30411265  0.31997298    -0.27700
F1345       F  0.25957494  0.40080514  0.32482709    -0.19800
H1346       H  0.24590875  0.39307086  0.29831330     0.15900
F1347       F  0.10002592  0.27074339  0.29926935    -0.23500
H1348       H  0.11329862  0.27954015  0.32599472     0.17700
C1349       C  0.21425185  0.09145343  0.41347589    -0.27600
C1350       C  0.22209311  0.11042566  0.42682248     0.06100
C1351       C  0.23081743  0.08807383  0.43775111     0.25700
C1352       C  0.23103796  0.04697696  0.43528720    -0.12000
C1353       C  0.22187503  0.02719682  0.42192563    -0.26000
C1354       C  0.21393445  0.05047026  0.41100115     0.36500
C1355       C  0.21708084  0.15134395  0.42906399     0.06100
F1356       F  0.23857711  0.10567291  0.45078580    -0.19800
H1357       H  0.23691942  0.02992618  0.44393852     0.15900
F1358       F  0.20388492  0.03296711  0.39795064    -0.23500
H1359       H  0.20646729  0.10759225  0.40496261     0.17700
C1360       C  0.23995803  0.18965990  0.42026967     0.25700
C1361       C  0.22595595  0.22234322  0.41959046    -0.12000
C1362       C  0.18945045  0.21778051  0.42779456    -0.26000
C1363       C  0.16938943  0.18196201  0.43753748     0.36600
C1364       C  0.18314878  0.14884674  0.43813599    -0.27700
F1365       F  0.27364083  0.19366771  0.41161884    -0.19800
H1366       H  0.24184168  0.24986546  0.41204704     0.15900
F1367       F  0.13334283  0.17625417  0.44536611    -0.23500
H1368       H  0.16471992  0.11931275  0.44485756     0.17700
C1369       C  0.14725501  0.62149013  0.41107055    -0.27600
C1370       C  0.16028419  0.60149385  0.42167078     0.06100
C1371       C  0.18402939  0.62833419  0.43325050     0.25700
C1372       C  0.19395741  0.67377209  0.43429920    -0.12000
C1373       C  0.18095517  0.69420014  0.42380564    -0.26000
C1374       C  0.15720617  0.66735163  0.41211882     0.36500
C1375       C  0.15162553  0.55362491  0.42060832     0.06100
F1376       F  0.19923141  0.61109961  0.44340080    -0.19800
H1377       H  0.21270193  0.69321757  0.44335019     0.15900
F1378       F  0.14342315  0.68510774  0.40174080    -0.23500
H1379       H  0.12920650  0.60149767  0.40201470     0.17700
C1380       C  0.13166892  0.52301661  0.43178653     0.25700
C1381       C  0.13451127  0.48297380  0.43251345    -0.12000
C1382       C  0.15648741  0.47211979  0.42200755    -0.26000
C1383       C  0.17176323  0.49997900  0.41006571     0.36600
C1384       C  0.16941700  0.54056304  0.40941667    -0.27700
F1385       F  0.11214270  0.53342522  0.44246850    -0.19800
H1386       H  0.12195172  0.46175959  0.44173320     0.15900
F1387       F  0.19325661  0.49066212  0.39971839    -0.23500
H1388       H  0.18476020  0.56351925  0.40067152     0.17700
C1389       C  0.48143164  0.63275247  0.40780004    -0.27600
C1390       C  0.46884738  0.59981821  0.41844370     0.06100
C1391       C  0.50053828  0.60830827  0.42921146     0.25700
C1392       C  0.54143791  0.65054456  0.43000061    -0.12000
C1393       C  0.55208419  0.68495757  0.42000557    -0.26000
C1394       C  0.52264441  0.67492389  0.40853433     0.36500
C1395       C  0.42109552  0.55964430  0.41914460     0.06100
F1396       F  0.49040195  0.57750851  0.43963719    -0.19800
H1397       H  0.56368692  0.65739085  0.43890535     0.15900
F1398       F  0.53145284  0.70735836  0.39873003    -0.23500
H1399       H  0.45818082  0.62672921  0.39923132     0.17700
C1400       C  0.38291788  0.56614094  0.41763973     0.25700
C1401       C  0.33815061  0.52936815  0.41942367    -0.12000
C1402       C  0.33038539  0.48551140  0.42285812    -0.26000
C1403       C  0.36812668  0.47855879  0.42425042     0.36600
C1404       C  0.41305014  0.51526847  0.42232908    -0.27700
F1405       F  0.38888618  0.60856872  0.41513987    -0.19800
H1406       H  0.30942549  0.53538298  0.41846033     0.15900
F1407       F  0.36154743  0.43647808  0.42767177    -0.23500
H1408       H  0.44161517  0.50912327  0.42348705     0.17700
C1409       C  0.88051189  0.01974003  0.43664901    -0.27600
C1410       C  0.87937076  0.05451785  0.42880148     0.06100
C1411       C  0.84084519  0.04275298  0.42031572     0.25700
C1412       C  0.80681489  0.99685395  0.41865379    -0.12000
C1413       C  0.80971341  0.96178968  0.42567780    -0.26000
C1414       C  0.84580395  0.97372018  0.43519595     0.36500
C1415       C  0.92104231  0.10090140  0.42766871     0.06100
F1416       F  0.83727457  0.07549542  0.41304994    -0.19800
H1417       H  0.77901375  0.98850013  0.41141277     0.15900
F1418       F  0.84989775  0.94065607  0.44209508    -0.23500
H1419       H  0.90987989  0.02767580  0.44315416     0.17700
C1420       C  0.94677433  0.12590279  0.43932144     0.25700
C1421       C  0.98823040  0.16758871  0.43756960    -0.12000
C1422       C  0.00479647  0.18481087  0.42418456    -0.26000
C1423       C  0.97787503  0.16035668  0.41263354     0.36600
C1424       C  0.93704470  0.11901214  0.41439996    -0.27700
F1425       F  0.93209472  0.10993612  0.45234682    -0.19800
H1426       H  0.00806948  0.18555216  0.44666000     0.15900
F1427       F  0.99128185  0.17573318  0.39948291    -0.23500
H1428       H  0.91857809  0.10024537  0.40522320     0.17700
C1429       C  0.82505449  0.14085731  0.65299217    -0.27600
C1430       C  0.83345826  0.18014429  0.66038920     0.06100
C1431       C  0.84191662  0.21987154  0.65298323     0.25700
C1432       C  0.84423291  0.22063512  0.63841608    -0.12000
C1433       C  0.83813358  0.18185187  0.63106834    -0.26000
C1434       C  0.82700949  0.14144709  0.63852529     0.36500
C1435       C  0.83404650  0.17912629  0.67579362     0.06100
F1436       F  0.85032831  0.25859565  0.65984111    -0.19800
H1437       H  0.85309780  0.25219152  0.63294791     0.15900
F1438       F  0.81885457  0.10253093  0.63183371    -0.23500
H1439       H  0.81746048  0.10966745  0.65847757     0.17700
C1440       C  0.80432751  0.18837170  0.68353546     0.25700
C1441       C  0.80462618  0.18655914  0.69801161    -0.12000
C1442       C  0.83483117  0.17590303  0.70519479    -0.26000
C1443       C  0.86420313  0.16597874  0.69740876     0.36600
C1444       C  0.86349372  0.16731401  0.68283846    -0.27700
F1445       F  0.77445456  0.19848698  0.67710038    -0.19800
H1446       H  0.78134824  0.19424790  0.70361769     0.15900
F1447       F  0.89438874  0.15628020  0.70380714    -0.23500
H1448       H  0.88658466  0.15989150  0.67701510     0.17700
C1449       C  0.88805437  0.50061384  0.59424749    -0.27600
C1450       C  0.88423709  0.47282057  0.58282430     0.06100
C1451       C  0.86921276  0.48098590  0.57005871     0.25700
C1452       C  0.85939039  0.51647602  0.56865105    -0.12000
C1453       C  0.86325958  0.54469470  0.57994375    -0.26000
C1454       C  0.87778572  0.53632085  0.59285983     0.36500
C1455       C  0.89237532  0.43315967  0.58412078     0.06100
F1456       F  0.86185431  0.45318056  0.55898342    -0.19800
H1457       H  0.84762514  0.52104706  0.55862136     0.15900
F1458       F  0.88187919  0.56224709  0.60414573    -0.23500
H1459       H  0.89891631  0.49460906  0.60424315     0.17700
C1460       C  0.91722001  0.42509206  0.57381445     0.25700
C1461       C  0.91310888  0.38174579  0.57248661    -0.12000
C1462       C  0.88594662  0.34626982  0.58177754    -0.26000
C1463       C  0.86643623  0.35621999  0.59324401     0.36600
C1464       C  0.86930627  0.39929734  0.59431413    -0.27700
F1465       F  0.94295255  0.45823156  0.56442831    -0.19800
H1466       H  0.92923877  0.37514262  0.56374619     0.15900
F1467       F  0.84053676  0.32291041  0.60256209    -0.23500
H1468       H  0.85041437  0.40480704  0.60246466     0.17700
C1469       C  0.80832976  0.88814915  0.56557832    -0.27600
C1470       C  0.81930979  0.91921175  0.57661551     0.06100
C1471       C  0.82870425  0.90740301  0.58972730     0.25700
C1472       C  0.82896639  0.86636683  0.59159666    -0.12000
C1473       C  0.82009048  0.83592861  0.58046313    -0.26000
C1474       C  0.80835199  0.84668436  0.56746352     0.36500
C1475       C  0.82441140  0.96533198  0.57447659     0.06100
F1476       F  0.84043912  0.93688495  0.60059747    -0.19800
H1477       H  0.83787829  0.85936066  0.60176123     0.15900
F1478       F  0.79845199  0.81813730  0.55644829    -0.23500
H1479       H  0.80058326  0.89644672  0.55542555     0.17700
C1480       C  0.85624598  0.99633840  0.56480671     0.25700
C1481       C  0.86884169  0.04294579  0.56515083    -0.12000
C1482       C  0.85010597  0.05907741  0.57519434    -0.26000
C1483       C  0.81531103  0.02734087  0.58398417     0.36600
C1484       C  0.80248605  0.98089771  0.58356410    -0.27700
F1485       F  0.87837371  0.98252541  0.55595666    -0.19800
H1486       H  0.89599620  0.06695195  0.55838306     0.15900
F1487       F  0.79573153  0.04181261  0.59356941    -0.23500
H1488       H  0.77737943  0.95747785  0.59094330     0.17700
C1489       C  0.53419249  0.12258414  0.57985443    -0.27600
C1490       C  0.57191140  0.15798261  0.58693179     0.06100
C1491       C  0.56590579  0.19134622  0.59396934     0.25700
C1492       C  0.52422369  0.19130911  0.59289607    -0.12000
C1493       C  0.48824696  0.15853593  0.58464798    -0.26000
C1494       C  0.49280031  0.12292006  0.57865467     0.36500
C1495       C  0.61864570  0.16418583  0.58488967     0.06100
F1496       F  0.60171978  0.22674556  0.60061862    -0.19800
H1497       H  0.52168292  0.21948840  0.59741410     0.15900
F1498       F  0.45818924  0.09010596  0.57091637    -0.23500
H1499       H  0.53782272  0.09625286  0.57448665     0.17700
C1500       C  0.64860870  0.17122657  0.59603251     0.25700
C1501       C  0.69373175  0.18073094  0.59351585    -0.12000
C1502       C  0.71002283  0.18378629  0.57985327    -0.26000
C1503       C  0.67934089  0.17551083  0.56876296     0.36600
C1504       C  0.63441327  0.16578416  0.57130693    -0.27700
F1505       F  0.63426482  0.16876101  0.60932685    -0.19800
H1506       H  0.71618591  0.18651760  0.60228830     0.15900
F1507       F  0.69251593  0.17689156  0.55537942    -0.23500
H1508       H  0.61210110  0.16069898  0.56254427     0.17700
C1509       C  0.10352160  0.20934449  0.58481971    -0.27600
C1510       C  0.11670437  0.20412378  0.57144345     0.06100
C1511       C  0.08941777  0.20236352  0.56007023     0.25700
C1512       C  0.04912289  0.20456625  0.56222065    -0.12000
C1513       C  0.03528992  0.20817452  0.57573756    -0.26000
C1514       C  0.06380553  0.21173747  0.58697076     0.36500
C1515       C  0.15698677  0.19722476  0.56995898     0.06100
F1516       F  0.10140208  0.19804693  0.54694741    -0.19800
H1517       H  0.02791076  0.20172846  0.55337620     0.15900
F1518       F  0.05293507  0.21656350  0.60018935    -0.23500
H1519       H  0.12324565  0.20994656  0.59380317     0.17700
C1520       C  0.19728425  0.22432354  0.57771621     0.25700
C1521       C  0.23030734  0.21094880  0.57918198    -0.12000
C1522       C  0.22457317  0.17128761  0.57260673    -0.26000
C1523       C  0.18665176  0.14638874  0.56384231     0.36600
C1524       C  0.15289832  0.15916014  0.56259726    -0.27700
F1525       F  0.20359432  0.26247951  0.58448555    -0.19800
H1526       H  0.25954787  0.23054148  0.58593387     0.15900
F1527       F  0.18039516  0.10766307  0.55745487    -0.23500
H1528       H  0.12212967  0.13743573  0.55667342     0.17700
C1529       C  0.04710205  0.25889690  0.48924936    -0.27600
C1530       C  0.02674558  0.28526765  0.49282134     0.06100
C1531       C  0.03968418  0.32619093  0.48545058     0.25700
C1532       C  0.07316705  0.34087721  0.47505437    -0.12000
C1533       C  0.09378762  0.31469061  0.47157942    -0.26000
C1534       C  0.07994261  0.27312876  0.47867655     0.36500
C1535       C  0.99429414  0.27132148  0.50474035     0.06100
F1536       F  0.01934596  0.35158776  0.48811797    -0.19800
H1537       H  0.08227890  0.37235511  0.46950114     0.15900
F1538       F  0.09896717  0.24676824  0.47565248    -0.23500
H1539       H  0.03833097  0.22764113  0.49487486     0.17700
C1540       C  0.95851600  0.22554941  0.50639840     0.25700
C1541       C  0.93079628  0.21247144  0.51828464    -0.12000
C1542       C  0.93748658  0.24492107  0.52851883    -0.26000
C1543       C  0.97235889  0.29077161  0.52673227     0.36600
C1544       C  0.00064269  0.30367449  0.51501640    -0.27700
F1545       F  0.95008991  0.19357699  0.49649170    -0.19800
H1546       H  0.90388572  0.17701723  0.51947787     0.15900
F1547       F  0.98058527  0.32261383  0.53666477    -0.23500
H1548       H  0.02847750  0.33883539  0.51417833     0.17700
loop_ 
_geom_bond_atom_site_label_1 
_geom_bond_atom_site_label_2 
_geom_bond_distance 
_geom_bond_site_symmetry_2 
_ccdc_geom_bond_type 
O1           Ni7   1.919       .  S
O1           C22   1.267       .  A
O2          Ni25   1.906       .  S
O2           C11   1.267       .  A
O3           Ni7   1.904       .  S
O3          Ni25   1.917       .  S
O3          Ni19   1.918       .  S
O3           H26   0.966       .  S
C4           O21   1.280       .  A
C4           O13   1.281       .  A
C4         C1502   1.494       .  S
O5          Ni24   1.946       .  S
O5           C11   1.275       .  A
O6          Ni24   1.908       .  S
O6            C8   1.269       .  A
Ni7          O10   1.919       .  S
Ni7          O12   1.895       .  S
C8           O18   1.272       .  A
C8         C1462   1.481       .  S
O9          Ni25   1.927       .  S
O9           C15   1.276       .  A
O10          C15   1.275       .  A
C11        C1542   1.476       .  S
O12          C14   1.265       .  A
O13         Ni24   1.934       .  S
C14          O20   1.273       .  A
C14        C1482   1.475       .  S
C15        C1513   1.488   1_655  S
H16          O17   0.966       .  S
O17         Ni25   1.909       .  S
O17         Ni19   1.912       .  S
O17         Ni24   1.902       .  S
O18         Ni19   1.934       .  S
Ni19         O23   1.926       .  S
Ni19         O21   1.927       .  S
O20         Ni25   1.940       .  S
C22          O23   1.270       .  A
C22        C1433   1.484       .  S
O27         Ni33   1.898       .  S
O27          C48   1.260       .  A
O28         Ni51   1.895       .  S
O28          C37   1.265       .  A
O29         Ni33   1.894       .  S
O29         Ni51   1.897       .  S
O29         Ni45   1.922       .  S
O29          H52   0.967       .  S
C30          O47   1.280       .  A
C30          O39   1.282       .  A
C30        C1402   1.478       .  S
O31         Ni50   1.950       .  S
O31          C37   1.277       .  A
O32         Ni50   1.901       .  S
O32          C34   1.269       .  A
Ni33         O36   1.917       .  S
Ni33         O38   1.892       .  S
C34          O44   1.276       .  A
C34        C1382   1.482       .  S
O35         Ni51   1.935       .  S
O35          C41   1.282       .  A
O36          C41   1.279       .  A
C37        C1533   1.483       .  S
O38          C40   1.263       .  A
O39         Ni50   1.939       .  S
C40          O46   1.269       .  A
C40        C1362   1.470       .  S
C41        C1422   1.490       .  S
H42          O43   0.966       .  S
O43         Ni51   1.918       .  S
O43         Ni45   1.914       .  S
O43         Ni50   1.897       .  S
O44         Ni45   1.941       .  S
Ni45         O49   1.941       .  S
Ni45         O47   1.929       .  S
O46         Ni51   1.933       .  S
C48          O49   1.273       .  A
C48        C1333   1.487       .  S
O53         Ni59   1.910       .  S
O53          C74   1.262       .  A
O54         Ni77   1.898       .  S
O54          C63   1.266       .  A
O55         Ni59   1.906       .  S
O55         Ni77   1.907       .  S
O55         Ni71   1.918       .  S
O55          H78   0.966       .  S
C56          O73   1.278       .  A
C56          O65   1.281       .  A
C56        C1373   1.493       .  S
O57         Ni76   1.953       .  S
O57          C63   1.277       .  A
O58         Ni76   1.905       .  S
O58          C60   1.270       .  A
Ni59         O62   1.916       .  S
Ni59         O64   1.892       .  S
C60          O70   1.275       .  A
C60        C1302   1.478       .  S
O61         Ni77   1.926       .  S
O61          C67   1.278       .  A
O62          C67   1.276       .  A
C63        C1313   1.494       .  S
O64          C66   1.264       .  A
O65         Ni76   1.933       .  S
C66          O72   1.268       .  A
C66        C1273   1.469       .  S
C67        C1353   1.490   1_565  S
H68          O69   0.966       .  S
O69         Ni77   1.912       .  S
O69         Ni71   1.921       .  S
O69         Ni76   1.902       .  S
O70         Ni71   1.938       .  S
Ni71         O75   1.937       .  S
Ni71         O73   1.923       .  S
O72         Ni77   1.928       .  S
C74          O75   1.271       .  A
C74        C1262   1.477       .  S
O79         Ni85   1.900       .  S
O79         C100   1.260       .  A
O80        Ni103   1.892       .  S
O80          C89   1.264       .  A
O81         Ni85   1.903       .  S
O81        Ni103   1.899       .  S
O81         Ni97   1.928       .  S
O81         H104   0.966       .  S
C82          O99   1.282       .  A
C82          O91   1.284       .  A
C82        C1242   1.499       .  S
O83        Ni102   1.959       .  S
O83          C89   1.279       .  A
O84        Ni102   1.908       .  S
O84          C86   1.269       .  A
Ni85         O88   1.917       .  S
Ni85         O90   1.902       .  S
C86          O96   1.274       .  A
C86        C1493   1.479       .  S
O87        Ni103   1.927       .  S
O87          C93   1.278       .  A
O88          C93   1.277       .  A
C89        C1322   1.494       .  S
O90          C92   1.265       .  A
O91        Ni102   1.940       .  S
C92          O98   1.268       .  A
C92        C1522   1.468       .  S
C93        C1213   1.483   1_545  S
H94          O95   0.966       .  S
O95        Ni103   1.908       .  S
O95         Ni97   1.919       .  S
O95        Ni102   1.899       .  S
O96         Ni97   1.939       .  S
Ni97        O101   1.944       .  S
Ni97         O99   1.930       .  S
O98        Ni103   1.926       .  S
C100        O101   1.274       .  A
C100       C1193   1.490       .  S
O105       Ni111   1.915       .  S
O105        C126   1.268       .  A
O106       Ni129   1.900       .  S
O106        C115   1.265       .  A
O107       Ni111   1.912       .  S
O107       Ni129   1.917       .  S
O107       Ni123   1.918       .  S
O107        H130   0.966       .  S
C108        O125   1.277       .  A
C108        O117   1.277       .  A
C108       C1293   1.491       .  S
O109       Ni128   1.942       .  S
O109        C115   1.272       .  A
O110       Ni128   1.901       .  S
O110        C112   1.269       .  A
Ni111       O114   1.924       .  S
Ni111       O116   1.902       .  S
C112        O122   1.277       .  A
C112       C1393   1.483       .  S
O113       Ni129   1.914       .  S
O113        C119   1.271       .  A
O114        C119   1.273       .  A
C115       C1182   1.490       .  S
O116        C118   1.267       .  A
O117       Ni128   1.926       .  S
C118        O124   1.273       .  A
C118       C1413   1.478       .  S
C119       C1282   1.485       .  S
H120        O121   0.966       .  S
O121       Ni129   1.910       .  S
O121       Ni123   1.920       .  S
O121       Ni128   1.911       .  S
O122       Ni123   1.942       .  S
Ni123       O127   1.929       .  S
Ni123       O125   1.924       .  S
O124       Ni129   1.946       .  S
C126        O127   1.273       .  A
C126       C1162   1.480       .  S
O131       Ni137   1.907       .  S
O131        C152   1.263       .  A
O132       Ni155   1.898       .  S
O132        C141   1.266       .  A
O133       Ni137   1.900       .  S
O133       Ni155   1.896       .  S
O133       Ni149   1.917       .  S
O133        H156   0.966       .  S
C134        O151   1.278       .  A
C134        O143   1.279       .  A
C134       C1453   1.496       .  S
O135       Ni154   1.939       .  S
O135        C141   1.273       .  A
O136       Ni154   1.898       .  S
O136        C138   1.269       .  A
Ni137       O140   1.923       .  S
Ni137       O142   1.899       .  S
C138        O148   1.279       .  A
C138       C1233   1.487       .  S
O139       Ni155   1.928       .  S
O139        C145   1.281       .  A
O140        C145   1.280       .  A
C141       C1173   1.487       .  S
O142        C144   1.263       .  A
O143       Ni154   1.925       .  S
C144        O150   1.268       .  A
C144       C1222   1.471       .  S
C145       C1473   1.491       .  S
H146        O147   0.966       .  S
O147       Ni155   1.922       .  S
O147       Ni149   1.921       .  S
O147       Ni154   1.900       .  S
O148       Ni149   1.949       .  S
Ni149       O153   1.932       .  S
Ni149       O151   1.931       .  S
O150       Ni155   1.933       .  S
C152        O153   1.272       .  A
C152       C1142   1.481       .  S
O157       Ni163   1.906       .  S
O157        C178   1.264       .  A
O158       Ni181   1.890       .  S
O158        C167   1.266       .  A
O159       Ni163   1.886       .  S
O159       Ni181   1.885       .  S
O159       Ni175   1.919   1_455  S
O159        H182   0.966       .  S
C160        O177   1.280       .  A
C160        O169   1.283       .  A
C160       C1062   1.496       .  S
O161       Ni180   1.956       .  S
O161        C167   1.279   1_655  A
O162       Ni180   1.904       .  S
O162        C164   1.270       .  A
Ni163       O166   1.914       .  S
Ni163       O168   1.905       .  S
C164        O174   1.277       .  A
C164       C1102   1.479       .  S
O165       Ni181   1.944       .  S
O165        C171   1.282       .  A
O166        C171   1.278       .  A
C167       C1113   1.491       .  S
O168        C170   1.267       .  A
O169       Ni180   1.943       .  S
C170        O176   1.269       .  A
C170       C1073   1.478       .  S
C171       C1033   1.491       .  S
H172        O173   0.966   1_455  S
O173       Ni181   1.912   1_655  S
O173       Ni175   1.916       .  S
O173       Ni180   1.891       .  S
O174       Ni175   1.947       .  S
Ni175       O179   1.943       .  S
Ni175       O177   1.921       .  S
O176       Ni181   1.927       .  S
C178        O179   1.278   1_455  A
C178       C1013   1.488       .  S
O183       Ni189   1.914       .  S
O183        C204   1.266       .  A
O184       Ni207   1.896       .  S
O184        C193   1.267       .  A
O185       Ni189   1.895       .  S
O185       Ni207   1.896       .  S
O185       Ni201   1.917       .  S
O185        H208   0.966       .  S
C186        O203   1.279       .  A
C186        O195   1.283       .  A
C186        C933   1.482       .  S
O187       Ni206   1.955       .  S
O187        C193   1.279       .  A
O188       Ni206   1.908       .  S
O188        C190   1.271       .  A
Ni189       O192   1.918       .  S
Ni189       O194   1.899       .  S
C190        O200   1.274       .  A
C190        C982   1.481       .  S
O191       Ni207   1.931       .  S
O191        C197   1.279       .  A
O192        C197   1.277       .  A
C193       C1122   1.494       .  S
O194        C196   1.266       .  A
O195       Ni206   1.942       .  S
C196        O202   1.272       .  A
C196        C993   1.489       .  S
C197        C953   1.490       .  S
H198        O199   0.966       .  S
O199       Ni207   1.908       .  S
O199       Ni201   1.912       .  S
O199       Ni206   1.895       .  S
O200       Ni201   1.936       .  S
Ni201       O205   1.928       .  S
Ni201       O203   1.924       .  S
O202       Ni207   1.934       .  S
C204        O205   1.273       .  A
C204       C1342   1.478       .  S
O209       Ni215   1.913       .  S
O209        C230   1.265       .  A
O210       Ni233   1.905       .  S
O210        C219   1.267       .  A
O211       Ni215   1.892       .  S
O211       Ni233   1.899       .  S
O211       Ni227   1.917       .  S
O211        H234   0.967       .  S
C212        O229   1.281       .  A
C212        O221   1.280       .  A
C212        C973   1.494       .  S
O213       Ni232   1.938       .  S
O213        C219   1.273       .  A
O214       Ni232   1.893       .  S
O214        C216   1.267       .  A
Ni215       O218   1.919       .  S
Ni215       O220   1.899       .  S
C216        O226   1.278       .  A
C216        C873   1.491       .  S
O217       Ni233   1.928       .  S
O217        C223   1.280       .  A
O218        C223   1.278       .  A
C219        C922   1.476       .  S
O220        C222   1.266       .  A
O221       Ni232   1.923       .  S
C222        O228   1.269       .  A
C222        C902   1.472       .  S
C223       C1002   1.476       .  S
H224        O225   0.966       .  S
O225       Ni233   1.912       .  S
O225       Ni227   1.914       .  S
O225       Ni232   1.892       .  S
O226       Ni227   1.945       .  S
Ni227       O231   1.938       .  S
Ni227       O229   1.932       .  S
O228       Ni233   1.927       .  S
C230        O231   1.276       .  A
C230       C1153   1.483       .  S
O235       Ni241   1.910       .  S
O235        C256   1.265       .  A
O236       Ni259   1.897       .  S
O236        C245   1.268       .  A
O237       Ni241   1.889       .  S
O237       Ni259   1.893       .  S
O237       Ni253   1.923       .  S
O237        H260   0.966       .  S
C238        O255   1.282       .  A
C238        O247   1.282       .  A
C238        C853   1.477       .  S
O239       Ni258   1.943       .  S
O239        C245   1.276       .  A
O240       Ni258   1.904       .  S
O240        C242   1.269       .  A
Ni241       O244   1.919       .  S
Ni241       O246   1.896       .  S
C242        O252   1.275       .  A
C242       C1053   1.480       .  S
O243       Ni259   1.936       .  S
O243        C249   1.281       .  A
O244        C249   1.279       .  A
C245        C913   1.474       .  S
O246        C248   1.266       .  A
O247       Ni258   1.930       .  S
C248        O254   1.273       .  A
C248       C1042   1.490       .  S
C249        C833   1.493       .  S
H250        O251   0.966       .  S
O251       Ni259   1.906       .  S
O251       Ni253   1.902       .  S
O251       Ni258   1.886       .  S
O252       Ni253   1.938       .  S
Ni253       O257   1.925       .  S
Ni253       O255   1.931       .  S
O254       Ni259   1.942       .  S
C256        O257   1.272       .  A
C256        C822   1.471       .  S
O261       Ni267   1.911       .  S
O261        C282   1.264   1_565  A
O262       Ni285   1.903       .  S
O262        C271   1.269   1_565  A
O263       Ni267   1.898       .  S
O263       Ni285   1.903       .  S
O263       Ni279   1.907   1_565  S
O263        H286   0.974       .  S
C264        O281   1.279       .  A
C264        O273   1.282       .  A
C264       C1093   1.492       .  S
O265       Ni284   1.951       .  S
O265        C271   1.277       .  A
O266       Ni284   1.900       .  S
O266        C268   1.270       .  A
Ni267       O270   1.921       .  S
Ni267       O272   1.897       .  S
C268        O278   1.279       .  A
C268        C862   1.492       .  S
O269       Ni285   1.917       .  S
O269        C275   1.278       .  A
O270        C275   1.278       .  A
C271        C802   1.496   1_545  S
O272        C274   1.264       .  A
O273       Ni284   1.932       .  S
C274        O280   1.271       .  A
C274        C842   1.478       .  S
C275       C1082   1.475       .  S
H276        O277   0.965       .  S
O277       Ni285   1.912   1_545  S
O277       Ni279   1.914       .  S
O277       Ni284   1.893       .  S
O278       Ni279   1.945       .  S
Ni279       O283   1.939       .  S
Ni279       O281   1.923       .  S
O280       Ni285   1.941       .  S
C282        O283   1.274       .  A
C282        C782   1.483       .  S
O287       Ni293   1.918       .  S
O287        C308   1.267       .  A
O288       Ni311   1.895       .  S
O288        C297   1.266       .  A
O289       Ni293   1.899       .  S
O289       Ni311   1.902       .  S
O289       Ni305   1.907       .  S
O289        H312   0.966       .  S
C290        O307   1.278       .  A
C290        O299   1.281       .  A
C290        C882   1.477       .  S
O291       Ni310   1.956       .  S
O291        C297   1.278       .  A
O292       Ni310   1.909       .  S
O292        C294   1.272       .  A
Ni293       O296   1.928       .  S
Ni293       O298   1.902       .  S
C294        O304   1.279       .  A
C294        C942   1.496       .  S
O295       Ni311   1.915       .  S
O295        C301   1.277       .  A
O296        C301   1.280       .  A
C297        C793   1.494       .  S
O298        C300   1.263       .  A
O299       Ni310   1.935       .  S
C300        O306   1.270       .  A
C300        C962   1.474       .  S
C301        C893   1.486       .  S
H302        O303   0.966       .  S
O303       Ni311   1.907       .  S
O303       Ni305   1.910       .  S
O303       Ni310   1.893       .  S
O304       Ni305   1.948       .  S
Ni305       O309   1.927       .  S
Ni305       O307   1.926       .  S
O306       Ni311   1.940       .  S
C308        O309   1.273       .  A
C308       C1253   1.473       .  S
O313       Ni319   1.909       .  S
O313        C334   1.265       .  A
O314       Ni337   1.889       .  S
O314        C323   1.266       .  A
O315       Ni319   1.891       .  S
O315       Ni337   1.892       .  S
O315       Ni331   1.925       .  S
O315        H338   0.966       .  S
C316        O333   1.283       .  A
C316        O325   1.282       .  A
C316        C673   1.497       .  S
O317       Ni336   1.947       .  S
O317        C323   1.278       .  A
O318       Ni336   1.905       .  S
O318        C320   1.269       .  A
Ni319       O322   1.921       .  S
Ni319       O324   1.905       .  S
C320        O330   1.276       .  A
C320        C713   1.482       .  S
O321       Ni337   1.931       .  S
O321        C327   1.278       .  A
O322        C327   1.277       .  A
C323        C753   1.485       .  S
O324        C326   1.267       .  A
O325       Ni336   1.933       .  S
C326        O332   1.271       .  A
C326        C742   1.487       .  S
C327        C693   1.479       .  S
H328        O329   0.966       .  S
O329       Ni337   1.904       .  S
O329       Ni331   1.909       .  S
O329       Ni336   1.890       .  S
O330       Ni331   1.942       .  S
Ni331       O335   1.934       .  S
Ni331       O333   1.931       .  S
O332       Ni337   1.928       .  S
C334        O335   1.274       .  A
C334       C1133   1.480       .  S
O339       Ni345   1.910       .  S
O339        C360   1.266       .  A
O340       Ni363   1.887       .  S
O340        C349   1.264       .  A
O341       Ni345   1.890       .  S
O341       Ni363   1.888       .  S
O341       Ni357   1.917       .  S
O341        H364   0.969       .  S
C342        O359   1.280       .  A
C342        O351   1.282       .  A
C342        C613   1.479       .  S
O343       Ni362   1.951       .  S
O343        C349   1.279       .  A
O344       Ni362   1.906       .  S
O344        C346   1.272       .  A
Ni345       O348   1.920       .  S
Ni345       O350   1.902       .  S
C346        O356   1.277       .  A
C346        C653   1.493       .  S
O347       Ni363   1.923       .  S
O347        C353   1.278       .  A
O348        C353   1.278       .  A
C349        C762   1.486       .  S
O350        C352   1.266       .  A
O351       Ni362   1.933       .  S
C352        O358   1.268       .  A
C352        C642   1.484       .  S
C353        C602   1.478       .  S
H354        O355   0.965       .  S
O355       Ni363   1.902       .  S
O355       Ni357   1.902       .  S
O355       Ni362   1.887       .  S
O356       Ni357   1.938       .  S
Ni357       O361   1.927       .  S
Ni357       O359   1.922       .  S
O358       Ni363   1.922       .  S
C360        O361   1.273       .  A
C360        C813   1.471       .  S
O365       Ni371   1.909       .  S
O365        C386   1.265       .  A
O366       Ni389   1.897       .  S
O366        C375   1.266       .  A
O367       Ni371   1.896       .  S
O367       Ni389   1.894       .  S
O367       Ni383   1.919       .  S
O367        H390   0.967       .  S
C368        O385   1.279       .  A
C368        O377   1.281       .  A
C368        C542   1.492       .  S
O369       Ni388   1.947       .  S
O369        C375   1.277       .  A
O370       Ni388   1.906       .  S
O370        C372   1.270       .  A
Ni371       O374   1.919       .  S
Ni371       O376   1.906       .  S
C372        O382   1.275       .  A
C372        C682   1.487       .  S
O373       Ni389   1.923       .  S
O373        C379   1.277       .  A
O374        C379   1.278       .  A
C375        C582   1.491       .  S
O376        C378   1.268       .  A
O377       Ni388   1.934       .  S
C378        O384   1.272       .  A
C378        C702   1.490       .  S
C379        C562   1.479       .  S
H380        O381   0.966       .  S
O381       Ni389   1.909       .  S
O381       Ni383   1.917       .  S
O381       Ni388   1.899       .  S
O382       Ni383   1.941       .  S
Ni383       O387   1.935       .  S
Ni383       O385   1.921       .  S
O384       Ni389   1.934       .  S
C386        O387   1.273       .  A
C386       C1202   1.485       .  S
O391       Ni397   1.915       .  S
O391        C412   1.267       .  A
O392       Ni415   1.895       .  S
O392        C401   1.265       .  A
O393       Ni397   1.896       .  S
O393       Ni415   1.897       .  S
O393       Ni409   1.917   1_545  S
O393        H416   0.966       .  S
C394        O411   1.283       .  A
C394        O403   1.281       .  A
C394        C662   1.479       .  S
O395       Ni414   1.950   1_545  S
O395        C401   1.278       .  A
O396       Ni414   1.905       .  S
O396        C398   1.270       .  A
Ni397       O400   1.921       .  S
Ni397       O402   1.906       .  S
C398        O408   1.278       .  A
C398        C493   1.496       .  S
O399       Ni415   1.919       .  S
O399        C405   1.276       .  A
O400        C405   1.278       .  A
C401        C573   1.491       .  S
O402        C404   1.268       .  A
O403       Ni414   1.926       .  S
C404        O410   1.271       .  A
C404        C513   1.489       .  S
C405        C633   1.476       .  S
H406        O407   0.966       .  S
O407       Ni415   1.902       .  S
O407       Ni409   1.908   1_545  S
O407       Ni414   1.889   1_545  S
O408       Ni409   1.944       .  S
Ni409       O413   1.936       .  S
Ni409       O411   1.934       .  S
O410       Ni415   1.931       .  S
C412        O413   1.276   1_545  A
C412        C773   1.477       .  S
O417       Ni423   1.916       .  S
O417        C438   1.267   1_655  A
O418       Ni441   1.896       .  S
O418        C427   1.267       .  A
O419       Ni423   1.892       .  S
O419       Ni441   1.895       .  S
O419       Ni435   1.918   1_655  S
O419        H442   0.966   1_655  S
C420        O437   1.281       .  A
C420        O429   1.281       .  A
C420        C502   1.485       .  S
O421       Ni440   1.952       .  S
O421        C427   1.278   1_455  A
O422       Ni440   1.902       .  S
O422        C424   1.272       .  A
Ni423       O426   1.921       .  S
Ni423       O428   1.900       .  S
C424        O434   1.278       .  A
C424        C622   1.493       .  S
O425       Ni441   1.927       .  S
O425        C431   1.279       .  A
O426        C431   1.278       .  A
C427        C482   1.490       .  S
O428        C430   1.267       .  A
O429       Ni440   1.931       .  S
C430        O436   1.270       .  A
C430        C593   1.487       .  S
C431        C522   1.482       .  S
H432        O433   0.966       .  S
O433       Ni441   1.911   1_455  S
O433       Ni435   1.912       .  S
O433       Ni440   1.892       .  S
O434       Ni435   1.943       .  S
Ni435       O439   1.938       .  S
Ni435       O437   1.932       .  S
O436       Ni441   1.929       .  S
C438        O439   1.277       .  A
C438       C1022   1.483       .  S
O443       Ni449   1.902       .  S
O443        C464   1.262       .  A
O444       Ni467   1.901       .  S
O444        C453   1.268       .  A
O445       Ni449   1.892       .  S
O445       Ni467   1.894       .  S
O445       Ni461   1.924       .  S
O445        H468   0.966       .  S
C446        O463   1.283       .  A
C446        O455   1.284       .  A
C446        C722   1.494       .  S
O447       Ni466   1.954       .  S
O447        C453   1.278       .  A
O448       Ni466   1.901       .  S
O448        C450   1.269       .  A
Ni449       O452   1.914       .  S
Ni449       O454   1.898       .  S
C450        O460   1.275       .  A
C450        C533   1.480       .  S
O451       Ni467   1.927       .  S
O451        C457   1.278       .  A
O452        C457   1.277       .  A
C453        C473   1.492       .  S
O454        C456   1.267       .  A
O455       Ni466   1.937       .  S
C456        O462   1.271       .  A
C456        C553   1.486       .  S
C457        C733   1.481       .  S
H458        O459   0.966       .  S
O459       Ni467   1.905       .  S
O459       Ni461   1.915       .  S
O459       Ni466   1.890       .  S
O460       Ni461   1.938       .  S
Ni461       O465   1.946       .  S
Ni461       O463   1.926       .  S
O462       Ni467   1.933       .  S
C464        O465   1.276       .  A
C464       C1442   1.490       .  S
C469        C470   1.404       .  A
C469        C474   1.403       .  A
C469        H479   1.083       .  S
C470        C475   1.491       .  S
C470        C471   1.408       .  A
C471        C472   1.402       .  A
C471        F476   1.357       .  S
C472        C473   1.407       .  A
C472        H477   1.083       .  S
C473        C474   1.412       .  A
C474        F478   1.357       .  S
C475        C480   1.406       .  A
C475        C484   1.408       .  A
C480        C481   1.398       .  A
C480        F485   1.357       .  S
C481        C482   1.406       .  A
C481        H486   1.081       .  S
C482        C483   1.409   1_655  A
C483        C484   1.406   1_455  A
C483        F487   1.357       .  S
C484        H488   1.083   1_655  S
C489        C490   1.404       .  A
C489        C494   1.395       .  A
C489        H499   1.083       .  S
C490        C495   1.499       .  S
C490        C491   1.412       .  A
C491        C492   1.408       .  A
C491        F496   1.357       .  S
C492        C493   1.409       .  A
C492        H497   1.083       .  S
C493        C494   1.412       .  A
C494        F498   1.358       .  S
C495        C500   1.412       .  A
C495        C504   1.409       .  A
C500        C501   1.400       .  A
C500        F505   1.358       .  S
C501        C502   1.404       .  A
C501        H506   1.083       .  S
C502        C503   1.407       .  A
C503        C504   1.405       .  A
C503        F507   1.357       .  S
C504        H508   1.082       .  S
C509        C510   1.404       .  A
C509        C514   1.405       .  A
C509        H519   1.083       .  S
C510        C515   1.482       .  S
C510        C511   1.404       .  A
C511        C512   1.394       .  A
C511        F516   1.358       .  S
C512        C513   1.407       .  A
C512        H517   1.083       .  S
C513        C514   1.413       .  A
C514        F518   1.357       .  S
C515        C520   1.406       .  A
C515        C524   1.403       .  A
C520        C521   1.398       .  A
C520        F525   1.358       .  S
C521        C522   1.405       .  A
C521        H526   1.083       .  S
C522        C523   1.410       .  A
C523        C524   1.401       .  A
C523        F527   1.356       .  S
C524        H528   1.083       .  S
C529        C530   1.405       .  A
C529        C534   1.403       .  A
C529        H539   1.083       .  S
C530        C535   1.485       .  S
C530        C531   1.406       .  A
C531        C532   1.397       .  A
C531        F536   1.358       .  S
C532        C533   1.404   1_455  A
C532        H537   1.083       .  S
C533        C534   1.409   1_655  A
C534        F538   1.358   1_455  S
C535        C540   1.405       .  A
C535        C544   1.404       .  A
C540        C541   1.395       .  A
C540        F545   1.358       .  S
C541        C542   1.409       .  A
C541        H546   1.083       .  S
C542        C543   1.412       .  A
C543        C544   1.405       .  A
C543        F547   1.357       .  S
C544        H548   1.083       .  S
C549        C550   1.405       .  A
C549        C554   1.405       .  A
C549        H559   1.083       .  S
C550        C555   1.477       .  S
C550        C551   1.402       .  A
C551        C552   1.389       .  A
C551        F556   1.358       .  S
C552        C553   1.407       .  A
C552        H557   1.083       .  S
C553        C554   1.412       .  A
C554        F558   1.357       .  S
C555        C560   1.406       .  A
C555        C564   1.401       .  A
C560        C561   1.397       .  A
C560        F565   1.358       .  S
C561        C562   1.405       .  A
C561        H566   1.083       .  S
C562        C563   1.410       .  A
C563        C564   1.398       .  A
C563        F567   1.357       .  S
C564        H568   1.083       .  S
C569        C570   1.404       .  A
C569        C574   1.400       .  A
C569        H579   1.083       .  S
C570        C575   1.490       .  S
C570        C571   1.409       .  A
C571        C572   1.401       .  A
C571        F576   1.357       .  S
C572        C573   1.406       .  A
C572        H577   1.083   1_545  S
C573        C574   1.413       .  A
C574        F578   1.357       .  S
C575        C580   1.407       .  A
C575        C584   1.405       .  A
C580        C581   1.399       .  A
C580        F585   1.357       .  S
C581        C582   1.407       .  A
C581        H586   1.083       .  S
C582        C583   1.412       .  A
C583        C584   1.401       .  A
C583        F587   1.357       .  S
C584        H588   1.083       .  S
C589        C590   1.405       .  A
C589        C594   1.404       .  A
C589        H599   1.083       .  S
C590        C595   1.481       .  S
C590        C591   1.404       .  A
C591        C592   1.392       .  A
C591        F596   1.358       .  S
C592        C593   1.407       .  A
C592        H597   1.083       .  S
C593        C594   1.412       .  A
C594        F598   1.357       .  S
C595        C600   1.407       .  A
C595        C604   1.402       .  A
C600        C601   1.398       .  A
C600        F605   1.358       .  S
C601        C602   1.404       .  A
C601        H606   1.083       .  S
C602        C603   1.410       .  A
C603        C604   1.398       .  A
C603        F607   1.357       .  S
C604        H608   1.083       .  S
C609        C610   1.406       .  A
C609        C614   1.397       .  A
C609        H619   1.083       .  S
C610        C615   1.489       .  S
C610        C611   1.408       .  A
C611        C612   1.402       .  A
C611        F616   1.357       .  S
C612        C613   1.405       .  A
C612        H617   1.083       .  S
C613        C614   1.405       .  A
C614        F618   1.358       .  S
C615        C620   1.405       .  A
C615        C624   1.408       .  A
C620        C621   1.392       .  A
C620        F625   1.358       .  S
C621        C622   1.409       .  A
C621        H626   1.083       .  S
C622        C623   1.411       .  A
C623        C624   1.407       .  A
C623        F627   1.357       .  S
C624        H628   1.083       .  S
C629        C630   1.404       .  A
C629        C634   1.394       .  A
C629        H639   1.084       .  S
C630        C635   1.479       .  S
C630        C631   1.406       .  A
C631        C632   1.399       .  A
C631        F636   1.357       .  S
C632        C633   1.406       .  A
C632        H637   1.082       .  S
C633        C634   1.405       .  A
C634        F638   1.358       .  S
C635        C640   1.405       .  A
C635        C644   1.402       .  A
C640        C641   1.401       .  A
C640        F645   1.357       .  S
C641        C642   1.409       .  A
C641        H646   1.083       .  S
C642        C643   1.410       .  A
C643        C644   1.390       .  A
C643        F647   1.358       .  S
C644        H648   1.084       .  S
C649        C650   1.407       .  A
C649        C654   1.405       .  A
C649        H659   1.083       .  S
C650        C655   1.491       .  S
C650        C651   1.407       .  A
C651        C652   1.395       .  A
C651        F656   1.358       .  S
C652        C653   1.409       .  A
C652        H657   1.083       .  S
C653        C654   1.411       .  A
C654        F658   1.357       .  S
C655        C660   1.410       .  A
C655        C664   1.406       .  A
C660        C661   1.403       .  A
C660        F665   1.357       .  S
C661        C662   1.404       .  A
C661        H666   1.083       .  S
C662        C663   1.406       .  A
C663        C664   1.398       .  A
C663        F667   1.358       .  S
C664        H668   1.083       .  S
C669        C670   1.400       .  A
C669        C674   1.393       .  A
C669        H679   1.084       .  S
C670        C675   1.488       .  S
C670        C671   1.408       .  A
C671        C672   1.410       .  A
C671        F676   1.357       .  S
C672        C673   1.412   1_455  A
C672        H677   1.083       .  S
C673        C674   1.414   1_655  A
C674        F678   1.357   1_455  S
C675        C680   1.407       .  A
C675        C684   1.405       .  A
C680        C681   1.405   1_565  A
C680        F685   1.357       .  S
C681        C682   1.408       .  A
C681        H686   1.083       .  S
C682        C683   1.408   1_545  A
C683        C684   1.398       .  A
C683        F687   1.358       .  S
C684        H688   1.083       .  S
C689        C690   1.403       .  A
C689        C694   1.400       .  A
C689        H699   1.083       .  S
C690        C695   1.487       .  S
C690        C691   1.409       .  A
C691        C692   1.401       .  A
C691        F696   1.357       .  S
C692        C693   1.403       .  A
C692        H697   1.083       .  S
C693        C694   1.409       .  A
C694        F698   1.358       .  S
C695        C700   1.405       .  A
C695        C704   1.407       .  A
C700        C701   1.394       .  A
C700        F705   1.358       .  S
C701        C702   1.407       .  A
C701        H706   1.083       .  S
C702        C703   1.412       .  A
C703        C704   1.407       .  A
C703        F707   1.357       .  S
C704        H708   1.083       .  S
C709        C710   1.407       .  A
C709        C714   1.403       .  A
C709        H719   1.083       .  S
C710        C715   1.493       .  S
C710        C711   1.409       .  A
C711        C712   1.400       .  A
C711        F716   1.357       .  S
C712        C713   1.405       .  A
C712        H717   1.083       .  S
C713        C714   1.407       .  A
C714        F718   1.358       .  S
C715        C720   1.408       .  A
C715        C724   1.407       .  A
C720        C721   1.397   1_565  A
C720        F725   1.358       .  S
C721        C722   1.408       .  A
C721        H726   1.083       .  S
C722        C723   1.411       .  A
C723        C724   1.406   1_545  A
C723        F727   1.357       .  S
C724        H728   1.083       .  S
C729        C730   1.404       .  A
C729        C734   1.396       .  A
C729        H739   1.084       .  S
C730        C735   1.481       .  S
C730        C731   1.405       .  A
C731        C732   1.399       .  A
C731        F736   1.357       .  S
C732        C733   1.408       .  A
C732        H737   1.083       .  S
C733        C734   1.408       .  A
C734        F738   1.358       .  S
C735        C740   1.406       .  A
C735        C744   1.401       .  A
C740        C741   1.403       .  A
C740        F745   1.357       .  S
C741        C742   1.409       .  A
C741        H746   1.083       .  S
C742        C743   1.412       .  A
C743        C744   1.392       .  A
C743        F747   1.358       .  S
C744        H748   1.084       .  S
C749        C750   1.401       .  A
C749        C754   1.396       .  A
C749        H759   1.084       .  S
C750        C755   1.479       .  S
C750        C751   1.405       .  A
C751        C752   1.400       .  A
C751        F756   1.358       .  S
C752        C753   1.408       .  A
C752        H757   1.083       .  S
C753        C754   1.411       .  A
C754        F758   1.356       .  S
C755        C760   1.405       .  A
C755        C764   1.401       .  A
C760        C761   1.400       .  A
C760        F765   1.357       .  S
C761        C762   1.407       .  A
C761        H766   1.083       .  S
C762        C763   1.413       .  A
C763        C764   1.396       .  A
C763        F767   1.357       .  S
C764        H768   1.084       .  S
C769        C770   1.408   1_565  A
C769        C774   1.407       .  A
C769        H779   1.083       .  S
C770        C775   1.490   1_556  S
C770        C771   1.406       .  A
C771        C772   1.396       .  A
C771        F776   1.358       .  S
C772        C773   1.404       .  A
C772        H777   1.084       .  S
C773        C774   1.406   1_545  A
C774        F778   1.357       .  S
C775        C780   1.411       .  A
C775        C784   1.402       .  A
C780        C781   1.408       .  A
C780        F785   1.357       .  S
C781        C782   1.405       .  A
C781        H786   1.083       .  S
C782        C783   1.409       .  A
C783        C784   1.395       .  A
C783        F787   1.358   1_545  S
C784        H788   1.083   1_545  S
C789        C790   1.407       .  A
C789        C794   1.407       .  A
C789        H799   1.083       .  S
C790        C795   1.493       .  S
C790        C791   1.406       .  A
C791        C792   1.397       .  A
C791        F796   1.358       .  S
C792        C793   1.408       .  A
C792        H797   1.083       .  S
C793        C794   1.411       .  A
C794        F798   1.357       .  S
C795        C800   1.407       .  A
C795        C804   1.406   1_565  A
C800        C801   1.399       .  A
C800        F805   1.358       .  S
C801        C802   1.408       .  A
C801        H806   1.082       .  S
C802        C803   1.413   1_565  A
C803        C804   1.406       .  A
C803        F807   1.357       .  S
C804        H808   1.083       .  S
C809        C810   1.405       .  A
C809        C814   1.402       .  A
C809        H819   1.083       .  S
C810        C815   1.467   1_556  S
C810        C811   1.397       .  A
C811        C812   1.391       .  A
C811        F816   1.358       .  S
C812        C813   1.407       .  A
C812        H817   1.084       .  S
C813        C814   1.405       .  A
C814        F818   1.357       .  S
C815        C820   1.406       .  A
C815        C824   1.396       .  A
C820        C821   1.401       .  A
C820        F825   1.357       .  S
C821        C822   1.403       .  A
C821        H826   1.083       .  S
C822        C823   1.410       .  A
C823        C824   1.392       .  A
C823        F827   1.358       .  S
C824        H828   1.084       .  S
C829        C830   1.405       .  A
C829        C834   1.406       .  A
C829        H839   1.083       .  S
C830        C835   1.487       .  S
C830        C831   1.406       .  A
C831        C832   1.394       .  A
C831        F836   1.358       .  S
C832        C833   1.408       .  A
C832        H837   1.083       .  S
C833        C834   1.413       .  A
C834        F838   1.357       .  S
C835        C840   1.409       .  A
C835        C844   1.404       .  A
C840        C841   1.403       .  A
C840        F845   1.357       .  S
C841        C842   1.404       .  A
C841        H846   1.083       .  S
C842        C843   1.406       .  A
C843        C844   1.397       .  A
C843        F847   1.358       .  S
C844        H848   1.083       .  S
C849        C850   1.407       .  A
C849        C854   1.398       .  A
C849        H859   1.083       .  S
C850        C855   1.495       .  S
C850        C851   1.411       .  A
C851        C852   1.404       .  A
C851        F856   1.357       .  S
C852        C853   1.403       .  A
C852        H857   1.083       .  S
C853        C854   1.404       .  A
C854        F858   1.358       .  S
C855        C860   1.407       .  A
C855        C864   1.409       .  A
C860        C861   1.394       .  A
C860        F865   1.358       .  S
C861        C862   1.409       .  A
C861        H866   1.083       .  S
C862        C863   1.410       .  A
C863        C864   1.407       .  A
C863        F867   1.357       .  S
C864        H868   1.083       .  S
C869        C870   1.402       .  A
C869        C874   1.392       .  A
C869        H879   1.083       .  S
C870        C875   1.490       .  S
C870        C871   1.410       .  A
C871        C872   1.406       .  A
C871        F876   1.357       .  S
C872        C873   1.408       .  A
C872        H877   1.083       .  S
C873        C874   1.413       .  A
C874        F878   1.358       .  S
C875        C880   1.410       .  A
C875        C884   1.407       .  A
C880        C881   1.400       .  A
C880        F885   1.358       .  S
C881        C882   1.403   1_655  A
C881        H886   1.083       .  S
C882        C883   1.405       .  A
C883        C884   1.401   1_455  A
C883        F887   1.357       .  S
C884        H888   1.083       .  S
C889        C890   1.405       .  A
C889        C894   1.405       .  A
C889        H899   1.083       .  S
C890        C895   1.482       .  S
C890        C891   1.405       .  A
C891        C892   1.388       .  A
C891        F896   1.358       .  S
C892        C893   1.406       .  A
C892        H897   1.083       .  S
C893        C894   1.412       .  A
C894        F898   1.356       .  S
C895        C900   1.408       .  A
C895        C904   1.403       .  A
C900        C901   1.404       .  A
C900        F905   1.357       .  S
C901        C902   1.405       .  A
C901        H906   1.083       .  S
C902        C903   1.404       .  A
C903        C904   1.391       .  A
C903        F907   1.358       .  S
C904        H908   1.084       .  S
C909        C910   1.408       .  A
C909        C914   1.399       .  A
C909        H919   1.083       .  S
C910        C915   1.492       .  S
C910        C911   1.410       .  A
C911        C912   1.397       .  A
C911        F916   1.357       .  S
C912        C913   1.401       .  A
C912        H917   1.083       .  S
C913        C914   1.406       .  A
C914        F918   1.358       .  S
C915        C920   1.410       .  A
C915        C924   1.409       .  A
C920        C921   1.398       .  A
C920        F925   1.357       .  S
C921        C922   1.403       .  A
C921        H926   1.084       .  S
C922        C923   1.403       .  A
C923        C924   1.399       .  A
C923        F927   1.357       .  S
C924        H928   1.083       .  S
C929        C930   1.409       .  A
C929        C934   1.402       .  A
C929        H939   1.083       .  S
C930        C935   1.501       .  S
C930        C931   1.412       .  A
C931        C932   1.405       .  A
C931        F936   1.357       .  S
C932        C933   1.404       .  A
C932        H937   1.083       .  S
C933        C934   1.404       .  A
C934        F938   1.358       .  S
C935        C940   1.409       .  A
C935        C944   1.411       .  A
C940        C941   1.397       .  A
C940        F945   1.357       .  S
C941        C942   1.408   1_545  A
C941        H946   1.083       .  S
C942        C943   1.410   1_565  A
C943        C944   1.410       .  A
C943        F947   1.357   1_545  S
C944        H948   1.083       .  S
C949        C950   1.404       .  A
C949        C954   1.395       .  A
C949        H959   1.083       .  S
C950        C955   1.490       .  S
C950        C951   1.409       .  A
C951        C952   1.403       .  A
C951        F956   1.357       .  S
C952        C953   1.409       .  A
C952        H957   1.083       .  S
C953        C954   1.410       .  A
C954        F958   1.358       .  S
C955        C960   1.409       .  A
C955        C964   1.408       .  A
C960        C961   1.399       .  A
C960        F965   1.357       .  S
C961        C962   1.403       .  A
C961        H966   1.083       .  S
C962        C963   1.405       .  A
C963        C964   1.400       .  A
C963        F967   1.358       .  S
C964        H968   1.083       .  S
C969        C970   1.407       .  A
C969        C974   1.407       .  A
C969        H979   1.083       .  S
C970        C975   1.491       .  S
C970        C971   1.407       .  A
C971        C972   1.394       .  A
C971        F976   1.358       .  S
C972        C973   1.408   1_545  A
C972        H977   1.083   1_545  S
C973        C974   1.412   1_565  A
C974        F978   1.357   1_545  S
C975        C980   1.409       .  A
C975        C984   1.407       .  A
C980        C981   1.397       .  A
C980        F985   1.358       .  S
C981        C982   1.403   1_655  A
C981        H986   1.083       .  S
C982        C983   1.409       .  A
C983        C984   1.404   1_455  A
C983        F987   1.358       .  S
C984        H988   1.083       .  S
C989        C990   1.400       .  A
C989        C994   1.393       .  A
C989        H999   1.084       .  S
C990        C995   1.480       .  S
C990        C991   1.405       .  A
C991        C992   1.404       .  A
C991        F996   1.357       .  S
C992        C993   1.409       .  A
C992        H997   1.083       .  S
C993        C994   1.413       .  A
C994        F998   1.358       .  S
C995       C1000   1.406       .  A
C995       C1004   1.404       .  A
C1000      C1001   1.400       .  A
C1000      F1005   1.357       .  S
C1001      C1002   1.405       .  A
C1001      H1006   1.084       .  S
C1002      C1003   1.406       .  A
C1003      C1004   1.397       .  A
C1003      F1007   1.358       .  S
C1004      H1008   1.083       .  S
C1009      C1010   1.397       .  A
C1009      C1014   1.396       .  A
C1009      H1019   1.084       .  S
C1010      C1015   1.482   1_554  S
C1010      C1011   1.409   1_455  A
C1011      C1012   1.406       .  A
C1011      F1016   1.357       .  S
C1012      C1013   1.405   1_655  A
C1012      H1017   1.083       .  S
C1013      C1014   1.416       .  A
C1014      F1018   1.358       .  S
C1015      C1020   1.401   1_455  A
C1015      C1024   1.408       .  A
C1020      C1021   1.397       .  A
C1020      F1025   1.358       .  S
C1021      C1022   1.409   1_655  A
C1021      H1026   1.084       .  S
C1022      C1023   1.406       .  A
C1023      C1024   1.405       .  A
C1023      F1027   1.357       .  S
C1024      H1028   1.083       .  S
C1029      C1030   1.404       .  A
C1029      C1034   1.404       .  A
C1029      H1039   1.083       .  S
C1030      C1035   1.488       .  S
C1030      C1031   1.407       .  A
C1031      C1032   1.397       .  A
C1031      F1036   1.358       .  S
C1032      C1033   1.407       .  A
C1032      H1037   1.083       .  S
C1033      C1034   1.413       .  A
C1034      F1038   1.356       .  S
C1035      C1040   1.405       .  A
C1035      C1044   1.407       .  A
C1040      C1041   1.391       .  A
C1040      F1045   1.358       .  S
C1041      C1042   1.407       .  A
C1041      H1046   1.083       .  S
C1042      C1043   1.411       .  A
C1043      C1044   1.409       .  A
C1043      F1047   1.357       .  S
C1044      H1048   1.083       .  S
C1049      C1050   1.406       .  A
C1049      C1054   1.405       .  A
C1049      H1059   1.083       .  S
C1050      C1055   1.487       .  S
C1050      C1051   1.406       .  A
C1051      C1052   1.397       .  A
C1051      F1056   1.358       .  S
C1052      C1053   1.404       .  A
C1052      H1057   1.084       .  S
C1053      C1054   1.409       .  A
C1054      F1058   1.358       .  S
C1055      C1060   1.404       .  A
C1055      C1064   1.405       .  A
C1060      C1061   1.396       .  A
C1060      F1065   1.358       .  S
C1061      C1062   1.409       .  A
C1061      H1066   1.083       .  S
C1062      C1063   1.414       .  A
C1063      C1064   1.407       .  A
C1063      F1067   1.357       .  S
C1064      H1068   1.083       .  S
C1069      C1070   1.403       .  A
C1069      C1074   1.403       .  A
C1069      H1079   1.083       .  S
C1070      C1075   1.474       .  S
C1070      C1071   1.403       .  A
C1071      C1072   1.390       .  A
C1071      F1076   1.358       .  S
C1072      C1073   1.405       .  A
C1072      H1077   1.084       .  S
C1073      C1074   1.409       .  A
C1074      F1078   1.357       .  S
C1075      C1080   1.403       .  A
C1075      C1084   1.403       .  A
C1080      C1081   1.391       .  A
C1080      F1085   1.358       .  S
C1081      C1082   1.404       .  A
C1081      H1086   1.084       .  S
C1082      C1083   1.408       .  A
C1083      C1084   1.402       .  A
C1083      F1087   1.357       .  S
C1084      H1088   1.083       .  S
C1089      C1090   1.404       .  A
C1089      C1094   1.404       .  A
C1089      H1099   1.083       .  S
C1090      C1095   1.488       .  S
C1090      C1091   1.407       .  A
C1091      C1092   1.396       .  A
C1091      F1096   1.358       .  S
C1092      C1093   1.406       .  A
C1092      H1097   1.083       .  S
C1093      C1094   1.414       .  A
C1094      F1098   1.357       .  S
C1095      C1100   1.407       .  A
C1095      C1104   1.406       .  A
C1100      C1101   1.398       .  A
C1100      F1105   1.357       .  S
C1101      C1102   1.404       .  A
C1101      H1106   1.083       .  S
C1102      C1103   1.408       .  A
C1103      C1104   1.403       .  A
C1103      F1107   1.358       .  S
C1104      H1108   1.083       .  S
C1109      C1110   1.405       .  A
C1109      C1114   1.402       .  A
C1109      H1119   1.083       .  S
C1110      C1115   1.488       .  S
C1110      C1111   1.406       .  A
C1111      C1112   1.399       .  A
C1111      F1116   1.358       .  S
C1112      C1113   1.409       .  A
C1112      H1117   1.083       .  S
C1113      C1114   1.410       .  A
C1114      F1118   1.357   1_455  S
C1115      C1120   1.405       .  A
C1115      C1124   1.405       .  A
C1120      C1121   1.400       .  A
C1120      F1125   1.358       .  S
C1121      C1122   1.410       .  A
C1121      H1126   1.083       .  S
C1122      C1123   1.412       .  A
C1123      C1124   1.403       .  A
C1123      F1127   1.357       .  S
C1124      H1128   1.083       .  S
C1129      C1130   1.395       .  A
C1129      C1134   1.391       .  A
C1129      H1139   1.084       .  S
C1130      C1135   1.474       .  S
C1130      C1131   1.408       .  A
C1131      C1132   1.405       .  A
C1131      F1136   1.357       .  S
C1132      C1133   1.405       .  A
C1132      H1137   1.083       .  S
C1133      C1134   1.412       .  A
C1134      F1138   1.358       .  S
C1135      C1140   1.398       .  A
C1135      C1144   1.406       .  A
C1140      C1141   1.393       .  A
C1140      F1145   1.358       .  S
C1141      C1142   1.410       .  A
C1141      H1146   1.083       .  S
C1142      C1143   1.407       .  A
C1143      C1144   1.403       .  A
C1143      F1147   1.357       .  S
C1144      H1148   1.083       .  S
C1149      C1150   1.406       .  A
C1149      C1154   1.405       .  A
C1149      H1159   1.083       .  S
C1150      C1155   1.481       .  S
C1150      C1151   1.401       .  A
C1151      C1152   1.399       .  A
C1151      F1156   1.358       .  S
C1152      C1153   1.409       .  A
C1152      H1157   1.084       .  S
C1153      C1154   1.406       .  A
C1154      F1158   1.357       .  S
C1155      C1160   1.408       .  A
C1155      C1164   1.399       .  A
C1160      C1161   1.406       .  A
C1160      F1165   1.357       .  S
C1161      C1162   1.404       .  A
C1161      H1166   1.083       .  S
C1162      C1163   1.410       .  A
C1163      C1164   1.398       .  A
C1163      F1167   1.358       .  S
C1164      H1168   1.083       .  S
C1169      C1170   1.403       .  A
C1169      C1174   1.401       .  A
C1169      H1179   1.083       .  S
C1170      C1175   1.481       .  S
C1170      C1171   1.404       .  A
C1171      C1172   1.396       .  A
C1171      F1176   1.357       .  S
C1172      C1173   1.407       .  A
C1172      H1177   1.083       .  S
C1173      C1174   1.412       .  A
C1174      F1178   1.357       .  S
C1175      C1180   1.404       .  A
C1175      C1184   1.403       .  A
C1180      C1181   1.397       .  A
C1180      F1185   1.358       .  S
C1181      C1182   1.408       .  A
C1181      H1186   1.083       .  S
C1182      C1183   1.413       .  A
C1183      C1184   1.402       .  A
C1183      F1187   1.357       .  S
C1184      H1188   1.083       .  S
C1189      C1190   1.398       .  A
C1189      C1194   1.396       .  A
C1189      H1199   1.084       .  S
C1190      C1195   1.486       .  S
C1190      C1191   1.411       .  A
C1191      C1192   1.405       .  A
C1191      F1196   1.357       .  S
C1192      C1193   1.405       .  A
C1192      H1197   1.083       .  S
C1193      C1194   1.416       .  A
C1194      F1198   1.358       .  S
C1195      C1200   1.402       .  A
C1195      C1204   1.409       .  A
C1200      C1201   1.395       .  A
C1200      F1205   1.358       .  S
C1201      C1202   1.408       .  A
C1201      H1206   1.083       .  S
C1202      C1203   1.407       .  A
C1203      C1204   1.405       .  A
C1203      F1207   1.357       .  S
C1204      H1208   1.083       .  S
C1209      C1210   1.407       .  A
C1209      C1214   1.395       .  A
C1209      H1219   1.082       .  S
C1210      C1215   1.493       .  S
C1210      C1211   1.410       .  A
C1211      C1212   1.403       .  A
C1211      F1216   1.357       .  S
C1212      C1213   1.407       .  A
C1212      H1217   1.083   1_565  S
C1213      C1214   1.406       .  A
C1214      F1218   1.358       .  S
C1215      C1220   1.410       .  A
C1215      C1224   1.410       .  A
C1220      C1221   1.397       .  A
C1220      F1225   1.357       .  S
C1221      C1222   1.400   1_455  A
C1221      H1226   1.084   1_455  S
C1222      C1223   1.403       .  A
C1223      C1224   1.402   1_655  A
C1223      F1227   1.358       .  S
C1224      H1228   1.082       .  S
C1229      C1230   1.407       .  A
C1229      C1234   1.407       .  A
C1229      H1239   1.083       .  S
C1230      C1235   1.491       .  S
C1230      C1231   1.406       .  A
C1231      C1232   1.398       .  A
C1231      F1236   1.358       .  S
C1232      C1233   1.407       .  A
C1232      H1237   1.084       .  S
C1233      C1234   1.408       .  A
C1234      F1238   1.357       .  S
C1235      C1240   1.406       .  A
C1235      C1244   1.406       .  A
C1240      C1241   1.397       .  A
C1240      F1245   1.358       .  S
C1241      C1242   1.409       .  A
C1241      H1246   1.083       .  S
C1242      C1243   1.414       .  A
C1243      C1244   1.409       .  A
C1243      F1247   1.357       .  S
C1244      H1248   1.083       .  S
C1249      C1250   1.409       .  A
C1249      C1254   1.404       .  A
C1249      H1259   1.083       .  S
C1250      C1255   1.489       .  S
C1250      C1251   1.407       .  A
C1251      C1252   1.396       .  A
C1251      F1256   1.357       .  S
C1252      C1253   1.404       .  A
C1252      H1257   1.084       .  S
C1253      C1254   1.404       .  A
C1254      F1258   1.357       .  S
C1255      C1260   1.411       .  A
C1255      C1264   1.403       .  A
C1260      C1261   1.405       .  A
C1260      F1265   1.357       .  S
C1261      C1262   1.403       .  A
C1261      H1266   1.083       .  S
C1262      C1263   1.407       .  A
C1263      C1264   1.396       .  A
C1263      F1267   1.358       .  S
C1264      H1268   1.083       .  S
C1269      C1270   1.402       .  A
C1269      C1274   1.392   1_655  A
C1269      H1279   1.084       .  S
C1270      C1275   1.477       .  S
C1270      C1271   1.407   1_655  A
C1271      C1272   1.403       .  A
C1271      F1276   1.357   1_455  S
C1272      C1273   1.404       .  A
C1272      H1277   1.083       .  S
C1273      C1274   1.404       .  A
C1274      F1278   1.358       .  S
C1275      C1280   1.402       .  A
C1275      C1284   1.404       .  A
C1280      C1281   1.388       .  A
C1280      F1285   1.358       .  S
C1281      C1282   1.406       .  A
C1281      H1286   1.083       .  S
C1282      C1283   1.412       .  A
C1283      C1284   1.406       .  A
C1283      F1287   1.357       .  S
C1284      H1288   1.083       .  S
C1289      C1290   1.405       .  A
C1289      C1294   1.395       .  A
C1289      H1299   1.083       .  S
C1290      C1295   1.493       .  S
C1290      C1291   1.409       .  A
C1291      C1292   1.405       .  A
C1291      F1296   1.357       .  S
C1292      C1293   1.409       .  A
C1292      H1297   1.083       .  S
C1293      C1294   1.410       .  A
C1294      F1298   1.358       .  S
C1295      C1300   1.411       .  A
C1295      C1304   1.407       .  A
C1300      C1301   1.404       .  A
C1300      F1305   1.357       .  S
C1301      C1302   1.405       .  A
C1301      H1306   1.084       .  S
C1302      C1303   1.403       .  A
C1303      C1304   1.398       .  A
C1303      F1307   1.357       .  S
C1304      H1308   1.083       .  S
C1309      C1310   1.406       .  A
C1309      C1314   1.404       .  A
C1309      H1319   1.083       .  S
C1310      C1315   1.490   1_565  S
C1310      C1311   1.406       .  A
C1311      C1312   1.399       .  A
C1311      F1316   1.357   1_565  S
C1312      C1313   1.409       .  A
C1312      H1317   1.083       .  S
C1313      C1314   1.411       .  A
C1314      F1318   1.357       .  S
C1315      C1320   1.406       .  A
C1315      C1324   1.406       .  A
C1320      C1321   1.399       .  A
C1320      F1325   1.358       .  S
C1321      C1322   1.410       .  A
C1321      H1326   1.083       .  S
C1322      C1323   1.411       .  A
C1323      C1324   1.404       .  A
C1323      F1327   1.357       .  S
C1324      H1328   1.083       .  S
C1329      C1330   1.396       .  A
C1329      C1334   1.392       .  A
C1329      H1339   1.084       .  S
C1330      C1335   1.482       .  S
C1330      C1331   1.411       .  A
C1331      C1332   1.404       .  A
C1331      F1336   1.357       .  S
C1332      C1333   1.404       .  A
C1332      H1337   1.083       .  S
C1333      C1334   1.416       .  A
C1334      F1338   1.358       .  S
C1335      C1340   1.402       .  A
C1335      C1344   1.408       .  A
C1340      C1341   1.395       .  A
C1340      F1345   1.358       .  S
C1341      C1342   1.407       .  A
C1341      H1346   1.084       .  S
C1342      C1343   1.405       .  A
C1343      C1344   1.403       .  A
C1343      F1347   1.357       .  S
C1344      H1348   1.083       .  S
C1349      C1350   1.401       .  A
C1349      C1354   1.392       .  A
C1349      H1359   1.084       .  S
C1350      C1355   1.482       .  S
C1350      C1351   1.405       .  A
C1351      C1352   1.404       .  A
C1351      F1356   1.357       .  S
C1352      C1353   1.411       .  A
C1352      H1357   1.083       .  S
C1353      C1354   1.412       .  A
C1354      F1358   1.358       .  S
C1355      C1360   1.406       .  A
C1355      C1364   1.406       .  A
C1360      C1361   1.395       .  A
C1360      F1365   1.358       .  S
C1361      C1362   1.403       .  A
C1361      H1366   1.084       .  S
C1362      C1363   1.404       .  A
C1363      C1364   1.402       .  A
C1363      F1367   1.357       .  S
C1364      H1368   1.083       .  S
C1369      C1370   1.406       .  A
C1369      C1374   1.407       .  A
C1369      H1379   1.083       .  S
C1370      C1375   1.488       .  S
C1370      C1371   1.406       .  A
C1371      C1372   1.394       .  A
C1371      F1376   1.358       .  S
C1372      C1373   1.407       .  A
C1372      H1377   1.083       .  S
C1373      C1374   1.414       .  A
C1374      F1378   1.357       .  S
C1375      C1380   1.406       .  A
C1375      C1384   1.406       .  A
C1380      C1381   1.397       .  A
C1380      F1385   1.358       .  S
C1381      C1382   1.405       .  A
C1381      H1386   1.084       .  S
C1382      C1383   1.408       .  A
C1383      C1384   1.405       .  A
C1383      F1387   1.357       .  S
C1384      H1388   1.083       .  S
C1389      C1390   1.409       .  A
C1389      C1394   1.403       .  A
C1389      H1399   1.083       .  S
C1390      C1395   1.496       .  S
C1390      C1391   1.409       .  A
C1391      C1392   1.400       .  A
C1391      F1396   1.357       .  S
C1392      C1393   1.406       .  A
C1392      H1397   1.084       .  S
C1393      C1394   1.406       .  A
C1394      F1398   1.358       .  S
C1395      C1400   1.411       .  A
C1395      C1404   1.409       .  A
C1400      C1401   1.401       .  A
C1400      F1405   1.357       .  S
C1401      C1402   1.401       .  A
C1401      H1406   1.084       .  S
C1402      C1403   1.405       .  A
C1403      C1404   1.405       .  A
C1403      F1407   1.357       .  S
C1404      H1408   1.083       .  S
C1409      C1410   1.407       .  A
C1409      C1414   1.403   1_545  A
C1409      H1419   1.083       .  S
C1410      C1415   1.490       .  S
C1410      C1411   1.409       .  A
C1411      C1412   1.396   1_545  A
C1411      F1416   1.357       .  S
C1412      C1413   1.402       .  A
C1412      H1417   1.084       .  S
C1413      C1414   1.408       .  A
C1414      F1418   1.358       .  S
C1415      C1420   1.410       .  A
C1415      C1424   1.403       .  A
C1420      C1421   1.408       .  A
C1420      F1425   1.357       .  S
C1421      C1422   1.410   1_655  A
C1421      H1426   1.083   1_655  S
C1422      C1423   1.410   1_455  A
C1423      C1424   1.392       .  A
C1423      F1427   1.358       .  S
C1424      H1428   1.083       .  S
C1429      C1430   1.400       .  A
C1429      C1434   1.395       .  A
C1429      H1439   1.083       .  S
C1430      C1435   1.485       .  S
C1430      C1431   1.411       .  A
C1431      C1432   1.405       .  A
C1431      F1436   1.357       .  S
C1432      C1433   1.405       .  A
C1432      H1437   1.083       .  S
C1433      C1434   1.410       .  A
C1434      F1438   1.358       .  S
C1435      C1440   1.401       .  A
C1435      C1444   1.409       .  A
C1440      C1441   1.396       .  A
C1440      F1445   1.358       .  S
C1441      C1442   1.413       .  A
C1441      H1446   1.083       .  S
C1442      C1443   1.407       .  A
C1443      C1444   1.405       .  A
C1443      F1447   1.357       .  S
C1444      H1448   1.083       .  S
C1449      C1450   1.408       .  A
C1449      C1454   1.410       .  A
C1449      H1459   1.083       .  S
C1450      C1455   1.492       .  S
C1450      C1451   1.406       .  A
C1451      C1452   1.393       .  A
C1451      F1456   1.358       .  S
C1452      C1453   1.407       .  A
C1452      H1457   1.083       .  S
C1453      C1454   1.414       .  A
C1454      F1458   1.357       .  S
C1455      C1460   1.409       .  A
C1455      C1464   1.407       .  A
C1460      C1461   1.398       .  A
C1460      F1465   1.358       .  S
C1461      C1462   1.403       .  A
C1461      H1466   1.084       .  S
C1462      C1463   1.409       .  A
C1463      C1464   1.405       .  A
C1463      F1467   1.358       .  S
C1464      H1468   1.083       .  S
C1469      C1470   1.405       .  A
C1469      C1474   1.404       .  A
C1469      H1479   1.083       .  S
C1470      C1475   1.485       .  S
C1470      C1471   1.405       .  A
C1471      C1472   1.394       .  A
C1471      F1476   1.358       .  S
C1472      C1473   1.408       .  A
C1472      H1477   1.083       .  S
C1473      C1474   1.412       .  A
C1474      F1478   1.356       .  S
C1475      C1480   1.409       .  A
C1475      C1484   1.404       .  A
C1480      C1481   1.403   1_565  A
C1480      F1485   1.357       .  S
C1481      C1482   1.404       .  A
C1481      H1486   1.083       .  S
C1482      C1483   1.406       .  A
C1483      C1484   1.396   1_545  A
C1483      F1487   1.358       .  S
C1484      H1488   1.083       .  S
C1489      C1490   1.407       .  A
C1489      C1494   1.400       .  A
C1489      H1499   1.083       .  S
C1490      C1495   1.490       .  S
C1490      C1491   1.409       .  A
C1491      C1492   1.403       .  A
C1491      F1496   1.357       .  S
C1492      C1493   1.405       .  A
C1492      H1497   1.084       .  S
C1493      C1494   1.404       .  A
C1494      F1498   1.357       .  S
C1495      C1500   1.407       .  A
C1495      C1504   1.404       .  A
C1500      C1501   1.406       .  A
C1500      F1505   1.357       .  S
C1501      C1502   1.410       .  A
C1501      H1506   1.083       .  S
C1502      C1503   1.411       .  A
C1503      C1504   1.397       .  A
C1503      F1507   1.357       .  S
C1504      H1508   1.083       .  S
C1509      C1510   1.403       .  A
C1509      C1514   1.392       .  A
C1509      H1519   1.083       .  S
C1510      C1515   1.489       .  S
C1510      C1511   1.410       .  A
C1511      C1512   1.407       .  A
C1511      F1516   1.357       .  S
C1512      C1513   1.409       .  A
C1512      H1517   1.083       .  S
C1513      C1514   1.409       .  A
C1514      F1518   1.358       .  S
C1515      C1520   1.410       .  A
C1515      C1524   1.408       .  A
C1520      C1521   1.396       .  A
C1520      F1525   1.358       .  S
C1521      C1522   1.399       .  A
C1521      H1526   1.084       .  S
C1522      C1523   1.403       .  A
C1523      C1524   1.403       .  A
C1523      F1527   1.358       .  S
C1524      H1528   1.083       .  S
C1529      C1530   1.406       .  A
C1529      C1534   1.400       .  A
C1529      H1539   1.083       .  S
C1530      C1535   1.490   1_455  S
C1530      C1531   1.409       .  A
C1531      C1532   1.400       .  A
C1531      F1536   1.358       .  S
C1532      C1533   1.405       .  A
C1532      H1537   1.083       .  S
C1533      C1534   1.408       .  A
C1534      F1538   1.358       .  S
C1535      C1540   1.410       .  A
C1535      C1544   1.406   1_655  A
C1540      C1541   1.402       .  A
C1540      F1545   1.357       .  S
C1541      C1542   1.403       .  A
C1541      H1546   1.083       .  S
C1542      C1543   1.404       .  A
C1543      C1544   1.399   1_655  A
C1543      F1547   1.358       .  S
C1544      H1548   1.083       .  S
