geometry optimzed in LAMMPS
_audit_creation_date              2020-12-01 
_audit_creation_method            'lammps2cif' 
_symmetry_space_group_name_H-M    'P1' 
_symmetry_Int_Tables_number       1 
_symmetry_cell_setting            triclinic 
loop_ 
_symmetry_equiv_pos_as_xyz 
  x,y,z 
_cell_length_a                    28.6759803 
_cell_length_b                    28.697312103756246 
_cell_length_c                    87.89487079683528 
_cell_angle_alpha                 89.87723551926257 
_cell_angle_beta                  90.0841969523016 
_cell_angle_gamma                 90.02815079635566 
loop_ 
_atom_site_label 
_atom_site_type_symbol 
_atom_site_fract_x 
_atom_site_fract_y 
_atom_site_fract_z 
_atom_site_charge 
O1          O  0.83815578  0.10901144  0.70404950    -0.85600
O2          O  0.76344068  0.10946885  0.72341180    -0.82700
C3          C  0.78299941  0.10257554  0.73617166     0.97800
O4          O  0.81170815  0.13226279  0.74119903    -0.82700
O5          O  0.86107828  0.21736370  0.74388368    -0.85400
C6          C  0.90115946  0.21410730  0.73821070     1.02300
O7          O  0.90650710  0.20545050  0.72433947    -0.78100
O8          O  0.88747467  0.16469381  0.69730070    -0.78300
C9          C  0.87794627  0.12155402  0.69932051     1.02300
O10         O  0.79596103  0.17533503  0.68499396    -0.85600
O11         O  0.72545810  0.18949316  0.70711281    -0.82700
C12         C  0.70928384  0.19783042  0.72024854     0.97800
O13         O  0.73210527  0.18492804  0.73180437    -0.82700
O14         O  0.78321572  0.26326069  0.73179746    -0.85300
C15         C  0.80821129  0.29459712  0.72598713     1.02300
O16         O  0.84403533  0.28405438  0.71811209    -0.78200
O17         O  0.82404570  0.24367435  0.69038946    -0.78300
C18         C  0.80711994  0.21581810  0.68084548     1.02300
Cr19       Cr  0.78289068  0.14919645  0.70565026     1.93700
Cr20       Cr  0.79889724  0.19848997  0.73569365     1.93200
Cr21       Cr  0.86172053  0.22203062  0.70813661     1.39100
O22         O  0.81531322  0.19008357  0.71648396    -1.23400
O23         O  0.16166752  0.87552293  0.69463081    -0.85600
O24         O  0.20601315  0.89851084  0.72057624    -0.82700
C25         C  0.21552576  0.89584610  0.73450444     0.97800
O26         O  0.22210525  0.85661220  0.74067432    -0.82700
O27         O  0.13878279  0.80600445  0.74044706    -0.85400
C28         C  0.10720802  0.77802880  0.73640442     1.02300
O29         O  0.11122554  0.75578631  0.72409186    -0.78100
O30         O  0.10670551  0.83029177  0.70423130    -0.78300
C31         C  0.11916060  0.86854893  0.69827626     1.02300
O32         O  0.23841446  0.81086526  0.68752141    -0.85600
O33         O  0.28404674  0.83636508  0.71406936    -0.82700
C34         C  0.29740852  0.80150922  0.72194588     0.97800
O35         O  0.26842745  0.77621954  0.72881361    -0.82700
O36         O  0.19070912  0.72455522  0.73106667    -0.85300
C37         C  0.19642158  0.70020415  0.71920665     1.02300
O38         O  0.18457704  0.71599025  0.70628073    -0.78200
O39         O  0.16779840  0.78508144  0.68388243    -0.78300
C40         C  0.20788653  0.79405198  0.67883184     1.02300
Cr41       Cr  0.22044064  0.85153150  0.70492172     1.93700
Cr42       Cr  0.20373444  0.79234214  0.73378018     1.93200
Cr43       Cr  0.14614160  0.77406359  0.70525435     1.39100
O44         O  0.19059635  0.80629051  0.71461816    -1.23400
O45         O  0.34709661  0.37738633  0.80201934    -0.85600
O46         O  0.30558872  0.39915951  0.77523484    -0.82700
C47         C  0.29142269  0.39598897  0.76174321     0.97800
O48         O  0.28176804  0.35662652  0.75627826    -0.82700
O49         O  0.36828963  0.31141641  0.75548851    -0.85400
C50         C  0.40308477  0.28865640  0.76022604     1.02300
O51         O  0.40039513  0.26399287  0.77222270    -0.78100
O52         O  0.40311529  0.33092790  0.79405708    -0.78300
C53         C  0.39011773  0.36938945  0.79961426     1.02300
O54         O  0.27022259  0.31369638  0.80864428    -0.85600
O55         O  0.22651667  0.33765148  0.78195920    -0.82700
C56         C  0.21372819  0.30038972  0.77530448     0.97800
O57         O  0.24304465  0.27451085  0.76885533    -0.82700
O58         O  0.32342872  0.22722862  0.76435340    -0.85300
C59         C  0.31546319  0.20150307  0.77569558     1.02300
O60         O  0.32578652  0.21605169  0.78887077    -0.78200
O61         O  0.33794244  0.28101247  0.81258176    -0.78300
C62         C  0.29808362  0.29277788  0.81738421     1.02300
Cr63       Cr  0.28963144  0.35339456  0.79124776     1.93700
Cr64       Cr  0.30536625  0.29385760  0.76271256     1.93200
Cr65       Cr  0.36332695  0.27501082  0.79127132     1.39100
O66         O  0.31953541  0.30791190  0.78184611    -1.23400
O67         O  0.66759125  0.62228747  0.80629203    -0.85600
O68         O  0.70658297  0.60341884  0.77911242    -0.82700
C69         C  0.71936204  0.60770284  0.76552399     0.97800
O70         O  0.72669771  0.64771931  0.75999149    -0.82700
O71         O  0.64014377  0.69552599  0.76046767    -0.85400
C72         C  0.60710698  0.72079239  0.76524414     1.02300
O73         O  0.61046423  0.74089174  0.77801074    -0.78100
O74         O  0.61036924  0.66634375  0.79777567    -0.78300
C75         C  0.62463716  0.62803636  0.80319568     1.02300
O76         O  0.74429770  0.68731031  0.81253052    -0.85600
O77         O  0.78539551  0.66375171  0.78534629    -0.82700
C78         C  0.79828768  0.70104574  0.77878379     0.97800
O79         O  0.76883812  0.72852576  0.77305179    -0.82700
O80         O  0.68848875  0.77786572  0.77043592    -0.85300
C81         C  0.69047575  0.80236816  0.78238161     1.02300
O82         O  0.68398995  0.78389954  0.79530747    -0.78200
O83         O  0.67439057  0.71317522  0.81739626    -0.78300
C84         C  0.71553210  0.70457279  0.82172815     1.02300
Cr85       Cr  0.72365882  0.64793993  0.79518381     1.93700
Cr86       Cr  0.70489630  0.71070227  0.76741534     1.93200
Cr87       Cr  0.64832840  0.72390511  0.79645924     1.39100
O88         O  0.69248331  0.69395860  0.78638074    -1.23400
O89         O  0.66464849  0.12089407  0.05419499    -0.85600
O90         O  0.71439935  0.09408281  0.02974828    -0.82700
C91         C  0.72400304  0.09420108  0.01578789     0.97800
O92         O  0.72923716  0.13218058  0.00871237    -0.82700
O93         O  0.64535586  0.18032103  0.00629083    -0.85400
C94         C  0.61221416  0.20745540  0.00945031     1.02300
O95         O  0.61400480  0.23190036  0.02132685    -0.78100
O96         O  0.60911817  0.16067426  0.04247545    -0.78300
C97         C  0.62248465  0.12494373  0.04974315     1.02300
O98         O  0.73733409  0.19116687  0.06091041    -0.85600
O99         O  0.78785888  0.16064782  0.03617505    -0.82700
C100        C  0.80111853  0.19398779  0.02770261     0.97800
O101        O  0.77256048  0.21599775  0.01952774    -0.82700
O102        O  0.69397881  0.26488982  0.01509165    -0.85300
C103        C  0.69667063  0.29114338  0.02664078     1.02300
O104        O  0.68264927  0.27715683  0.03951557    -0.78200
O105        O  0.66482491  0.21227812  0.06265671    -0.78300
C106        C  0.70466114  0.20857049  0.06855113     1.02300
Cr107      Cr  0.72382373  0.14515260  0.04440934     1.93700
Cr108      Cr  0.70893769  0.19709589  0.01387174     1.93200
Cr109      Cr  0.64633967  0.21819364  0.04092905     1.39100
O110        O  0.69345398  0.18632873  0.03305042    -1.23400
O111        O  0.34524996  0.88532035  0.04583360    -0.85600
O112        O  0.27187456  0.88587658  0.02617605    -0.82700
C113        C  0.29173325  0.89428134  0.01362720     0.97800
O114        O  0.31942751  0.86457498  0.00805899    -0.82700
O115        O  0.36889801  0.77993561  0.00485828    -0.85400
C116        C  0.40867761  0.78428937  0.01071571     1.02300
O117        O  0.41321531  0.79085922  0.02474503    -0.78100
O118        O  0.39429376  0.82885583  0.05202832    -0.78300
C119        C  0.38469329  0.87208678  0.05063847     1.02300
O120        O  0.30215294  0.81790504  0.06402767    -0.85600
O121        O  0.23257148  0.80609103  0.04143106    -0.82700
C122        C  0.21643679  0.79899425  0.02820326     0.97800
O123        O  0.23963140  0.81125876  0.01668725    -0.82700
O124        O  0.29035570  0.73205936  0.01639460    -0.85300
C125        C  0.31484724  0.70084554  0.02258238     1.02300
O126        O  0.35074928  0.71151437  0.03043137    -0.78200
O127        O  0.33153705  0.75033463  0.05845816    -0.78300
C128        C  0.31492808  0.77791872  0.06814669     1.02300
Cr129      Cr  0.29009419  0.84532869  0.04354978     1.93700
Cr130      Cr  0.30641729  0.79774469  0.01305024     1.93200
Cr131      Cr  0.36862117  0.77274991  0.04073723     1.39100
O132        O  0.32235140  0.80501591  0.03247346    -1.23400
O133        O  0.84896768  0.61594785  0.94598902    -0.85600
O134        O  0.80802115  0.59360734  0.97261148    -0.82700
C135        C  0.79662034  0.59628083  0.98636339     0.97800
O136        O  0.79057214  0.63542458  0.99243948    -0.82700
O137        O  0.87920604  0.67655508  0.99213776    -0.85400
C138        C  0.91353629  0.70016347  0.98752130     1.02300
O139        O  0.91035768  0.72564063  0.97574856    -0.78100
O140        O  0.90731530  0.66036582  0.95367805    -0.78300
C141        C  0.89240560  0.62248328  0.94821021     1.02300
O142        O  0.77455441  0.68426764  0.94051298    -0.85600
O143        O  0.73210365  0.66064988  0.96725470    -0.82700
C144        C  0.72240118  0.69719320  0.97483561     0.97800
O145        O  0.75398031  0.71994073  0.98143553    -0.82700
O146        O  0.83710938  0.76297183  0.98475297    -0.85300
C147        C  0.82645317  0.78972602  0.97392489     1.02300
O148        O  0.83458685  0.77668121  0.96044283    -0.78200
O149        O  0.84344304  0.71354840  0.93620441    -0.78300
C150        C  0.80270993  0.70434000  0.93171275     1.02300
Cr151      Cr  0.79338435  0.64195025  0.95729050     1.93700
Cr152      Cr  0.81613231  0.69736883  0.98623179     1.93200
Cr153      Cr  0.87044473  0.71717201  0.95719002     1.39100
O154        O  0.82665786  0.68482514  0.96680412    -1.23400
O155        O  0.16930889  0.37033468  0.94369001    -0.85600
O156        O  0.21296621  0.39066587  0.97013507    -0.82700
C157        C  0.22501671  0.38673553  0.98382027     0.97800
O158        O  0.22997693  0.34683558  0.98971949    -0.82700
O159        O  0.14198928  0.30195081  0.98963544    -0.85400
C160        C  0.10858651  0.27624828  0.98542219     1.02300
O161        O  0.11092880  0.25470598  0.97287402    -0.78100
O162        O  0.11158184  0.32750061  0.95266786    -0.78300
C163        C  0.12625182  0.36500595  0.94686402     1.02300
O164        O  0.24327973  0.30189913  0.93712886    -0.85600
O165        O  0.28789629  0.32486458  0.96381915    -0.82700
C166        C  0.29925757  0.28813291  0.97107303     0.97800
O167        O  0.26883580  0.26337747  0.97746880    -0.82700
O168        O  0.18743253  0.21753507  0.98012754    -0.85300
C169        C  0.18940218  0.19236426  0.96832202     1.02300
O170        O  0.18295816  0.20989754  0.95528515    -0.78200
O171        O  0.17218435  0.27902922  0.93271358    -0.78300
C172        C  0.21324390  0.28606955  0.92805919     1.02300
Cr173      Cr  0.22597710  0.34342321  0.95435265     1.93700
Cr174      Cr  0.20587689  0.28411339  0.98280343     1.93200
Cr175      Cr  0.14809994  0.26986040  0.95404401     1.39100
O176        O  0.19352082  0.29956999  0.96372137    -1.23400
O177        O  0.85318983  0.40702227  0.54820390    -0.85600
O178        O  0.78564391  0.40917969  0.52673836    -0.82700
C179        C  0.81099477  0.41442094  0.51502985     0.97800
O180        O  0.83474572  0.38094642  0.50993168    -0.82700
O181        O  0.87812531  0.29330926  0.50872520    -0.85400
C182        C  0.91765125  0.29891057  0.51472527     1.02300
O183        O  0.92080237  0.30953713  0.52853110    -0.78100
O184        O  0.89922770  0.34924909  0.55540843    -0.78300
C185        C  0.89176116  0.39272656  0.55339303     1.02300
O186        O  0.80338279  0.34147331  0.56586316    -0.85600
O187        O  0.73775390  0.33180211  0.54216728    -0.82700
C188        C  0.72351943  0.32410528  0.52876255     0.97800
O189        O  0.74915612  0.33584339  0.51773349    -0.82700
O190        O  0.79465564  0.25469092  0.52009887    -0.85300
C191        C  0.81930517  0.22247803  0.52544727     1.02300
O192        O  0.85526272  0.23179632  0.53350414    -0.78200
O193        O  0.83265222  0.27295984  0.56110296    -0.78300
C194        C  0.81366830  0.30089875  0.57022723     1.02300
Cr195      Cr  0.79686786  0.36892488  0.54503945     1.93700
Cr196      Cr  0.81563779  0.31710326  0.51557400     1.93200
Cr197      Cr  0.87344127  0.29323492  0.54400930     1.39100
O198        O  0.82936352  0.32639267  0.53497108    -1.23400
O199        O  0.68130443  0.88551962  0.44257768    -0.85600
O200        O  0.72324079  0.91335949  0.46860000    -0.82700
C201        C  0.73186123  0.91270348  0.48261931     0.97800
O202        O  0.73547252  0.87464210  0.48962170    -0.82700
O203        O  0.64941338  0.82709923  0.48927991    -0.85400
C204        C  0.61895140  0.79732072  0.48561133     1.02300
O205        O  0.62394760  0.77375235  0.47352273    -0.78100
O206        O  0.62380889  0.84107681  0.45113997    -0.78300
C207        C  0.63797580  0.87856544  0.44506073     1.02300
O208        O  0.75794072  0.81864146  0.43795894    -0.85600
O209        O  0.80022364  0.84731137  0.46438815    -0.82700
C210        C  0.81061683  0.81354202  0.47319767     0.97800
O211        O  0.77928499  0.79185990  0.48031500    -0.82700
O212        O  0.69921285  0.74368864  0.48282496    -0.85300
C213        C  0.71025478  0.71631777  0.47223112     1.02300
O214        O  0.70200449  0.72812026  0.45856123    -0.78200
O215        O  0.68874972  0.79065824  0.43365769    -0.78300
C216        C  0.72927675  0.79999689  0.42901532     1.02300
Cr217      Cr  0.73814739  0.86276292  0.45415143     1.93700
Cr218      Cr  0.71492062  0.81068248  0.48395542     1.93200
Cr219      Cr  0.66305154  0.78566411  0.45487585     1.39100
O220        O  0.70545549  0.82049338  0.46428815    -1.23400
O221        O  0.35757102  0.12757942  0.44562169    -0.85600
O222        O  0.31617596  0.11169382  0.47266672    -0.81100
C223        C  0.30461356  0.11717353  0.48629373     0.97800
O224        O  0.29849861  0.15756728  0.49160425    -0.82700
O225        O  0.38623120  0.20100273  0.49122391    -0.85400
C226        C  0.42127645  0.22247277  0.48610021     1.02300
O227        O  0.41897887  0.24370109  0.47344923    -0.78100
O228        O  0.41619785  0.17059484  0.45377275    -0.78300
C229        C  0.40111099  0.13305730  0.44813028     1.02300
O230        O  0.28385941  0.19591597  0.43868981    -0.85600
O231        O  0.23969351  0.17663121  0.46605636    -0.82700
C232        C  0.22947702  0.21436640  0.47295977     0.97800
O233        O  0.26126795  0.23993176  0.47815190    -0.82700
O234        O  0.34308911  0.28526486  0.48059905    -0.85300
C235        C  0.33959565  0.30878627  0.46846228     1.02300
O236        O  0.34649917  0.28969493  0.45571757    -0.78200
O237        O  0.35493910  0.21863143  0.43398254    -0.78300
C238        C  0.31393076  0.21069585  0.42944702     1.02300
Cr239      Cr  0.30167439  0.15652686  0.45638765     1.93700
Cr240      Cr  0.32332012  0.21911177  0.48395368     1.93200
Cr241      Cr  0.38048484  0.22894321  0.45495110     1.39100
O242        O  0.33513091  0.20101148  0.46508117    -1.23400
O243        O  0.18465026  0.61632562  0.54493280    -0.85600
O244        O  0.26015890  0.61517018  0.52553846    -0.82700
C245        C  0.24151531  0.60955532  0.51259610     0.97800
O246        O  0.21497908  0.64071046  0.50724422    -0.82700
O247        O  0.16576459  0.72635376  0.50491169    -0.85400
C248        C  0.12553015  0.72143951  0.51056317     1.02300
O249        O  0.12091308  0.71143184  0.52437928    -0.78100
O250        O  0.13893257  0.67417693  0.55197194    -0.78300
C251        C  0.14611396  0.63074325  0.55009334     1.02300
O252        O  0.22972008  0.68298310  0.56381919    -0.85600
O253        O  0.30029078  0.69175755  0.54197319    -0.82700
C254        C  0.31945908  0.69823289  0.52919303     0.97800
O255        O  0.29658840  0.69239802  0.51698654    -0.82700
O256        O  0.24564597  0.77110275  0.51743361    -0.85300
C257        C  0.21965633  0.80180584  0.52308100     1.02300
O258        O  0.18248130  0.79055152  0.53007919    -0.78200
O259        O  0.20298200  0.75165838  0.55789114    -0.78300
C260        C  0.21970068  0.72416969  0.56763146     1.02300
Cr261      Cr  0.24148131  0.65492526  0.54326403     1.93700
Cr262      Cr  0.22880845  0.70653877  0.51312274     1.93200
Cr263      Cr  0.16513102  0.72950404  0.54043225     1.39100
O264        O  0.21140354  0.69717382  0.53227855    -1.23400
O265        O  0.86687468  0.87454235  0.30344727    -0.85600
O266        O  0.83030333  0.89597881  0.27609052    -0.82700
C267        C  0.82308494  0.89221981  0.26205199     0.97800
O268        O  0.81626159  0.85280150  0.25618769    -0.82700
O269        O  0.89978253  0.80277250  0.25814541    -0.85400
C270        C  0.93057246  0.77515061  0.26308369     1.02300
O271        O  0.92487764  0.75491362  0.27575745    -0.78100
O272        O  0.92445346  0.82902025  0.29599082    -0.78300
C273        C  0.91019455  0.86754545  0.30127777     1.02300
O274        O  0.78874984  0.81079302  0.30885526    -0.85600
O275        O  0.74975363  0.83506916  0.28131625    -0.82700
C276        C  0.73784562  0.79889539  0.27392772     0.97800
O277        O  0.76820364  0.77354844  0.26771777    -0.82700
O278        O  0.84694066  0.72198187  0.26671570    -0.85300
C279        C  0.83915375  0.69732260  0.27836391     1.02300
O280        O  0.84765420  0.71336418  0.29153671    -0.78200
O281        O  0.85725826  0.78264312  0.31438090    -0.78300
C282        C  0.81635920  0.79323456  0.31842501     1.02300
Cr283      Cr  0.81131763  0.85023963  0.29172183     1.93700
Cr284      Cr  0.83370174  0.78941723  0.26373531     1.93200
Cr285      Cr  0.88517834  0.77230963  0.29367971     1.39100
O286        O  0.84311184  0.80428841  0.28308223    -1.23400
O287        O  0.36714864  0.60094906  0.20452975    -0.85600
O288        O  0.29202667  0.60103763  0.22358292    -0.82700
C289        C  0.31151916  0.59767106  0.23649113     0.97800
O290        O  0.33719875  0.63022668  0.24128315    -0.82700
O291        O  0.38236866  0.71748212  0.24254937    -0.85400
C292        C  0.42305508  0.71133110  0.23754204     1.02300
O293        O  0.42936129  0.69918375  0.22399183    -0.78100
O294        O  0.41420666  0.65703890  0.19682709    -0.78300
C295        C  0.40595043  0.61390417  0.19922414     1.02300
O296        O  0.32329271  0.66329272  0.18426168    -0.85600
O297        O  0.25087044  0.67463317  0.20565865    -0.82700
C298        C  0.23133125  0.68134056  0.21836078     0.97800
O299        O  0.25423980  0.67722180  0.23060268    -0.82700
O300        O  0.30264688  0.75720278  0.22871961    -0.85300
C301        C  0.32891826  0.78790962  0.22317345     1.02300
O302        O  0.36667437  0.77658900  0.21645147    -0.78200
O303        O  0.34929719  0.73316275  0.18896471    -0.78300
C304        C  0.33352190  0.70372692  0.17969663     1.02300
Cr305      Cr  0.31035139  0.63858300  0.20520940     1.93700
Cr306      Cr  0.32107526  0.69430946  0.23434177     1.93200
Cr307      Cr  0.38618232  0.71421978  0.20717381     1.39100
O308        O  0.33961171  0.68265634  0.21551321    -1.23400
O309        O  0.19109623  0.11589419  0.30229533    -0.85600
O310        O  0.23392817  0.09714897  0.27554840    -0.82700
C311        C  0.24730208  0.10204615  0.26204146     0.97800
O312        O  0.25601118  0.14214937  0.25678404    -0.82700
O313        O  0.17121399  0.19111509  0.25645859    -0.85400
C314        C  0.13803158  0.21658851  0.26085443     1.02300
O315        O  0.13986985  0.23644178  0.27367179    -0.78100
O316        O  0.13529572  0.16052053  0.29304760    -0.78300
C317        C  0.14816755  0.12265817  0.29914184     1.02300
O318        O  0.26771221  0.18034890  0.30956555    -0.85600
O319        O  0.31301562  0.15694903  0.28292789    -0.82700
C320        C  0.32691332  0.19419539  0.27645292     0.97800
O321        O  0.29810648  0.22190791  0.27057843    -0.82700
O322        O  0.21969185  0.27255340  0.26765695    -0.85300
C323        C  0.22153971  0.29530405  0.27997644     1.02300
O324        O  0.21145296  0.27607685  0.29249085    -0.78200
O325        O  0.19707537  0.20513633  0.31375520    -0.78300
C326        C  0.23793438  0.19739496  0.31847107     1.02300
Cr327      Cr  0.24932970  0.14119407  0.29194965     1.93700
Cr328      Cr  0.23482464  0.20518150  0.26425042     1.93200
Cr329      Cr  0.17443154  0.21736413  0.29254260     1.39100
O330        O  0.21965029  0.18754425  0.28291167    -1.23400
O331        O  0.68806386  0.36916124  0.19607698    -0.85600
O332        O  0.74014571  0.39362497  0.22062644    -0.82700
C333        C  0.75205879  0.39126211  0.23440383     0.97800
O334        O  0.75884573  0.35239169  0.24068786    -0.82700
O335        O  0.67522247  0.30234380  0.24321426    -0.85400
C336        C  0.64264015  0.27443620  0.23995716     1.02300
O337        O  0.64435010  0.25149033  0.22777921    -0.78100
O338        O  0.63479976  0.32518828  0.20734992    -0.78300
C339        C  0.64617933  0.36225287  0.20033550     1.02300
O340        O  0.76074253  0.30402305  0.18667851    -0.85600
O341        O  0.81402009  0.32974891  0.21197827    -0.82700
C342        C  0.82882594  0.29594858  0.22000277     0.97800
O343        O  0.80170354  0.27213402  0.22814006    -0.82700
O344        O  0.72510880  0.22072192  0.23296529    -0.85300
C345        C  0.72913718  0.19606029  0.22113899     1.02300
O346        O  0.71343954  0.21075969  0.20852463    -0.78200
O347        O  0.68982600  0.27751204  0.18652134    -0.78300
C348        C  0.72699417  0.28614099  0.17954863     1.02300
Cr349      Cr  0.74875878  0.34533535  0.20476309     1.93700
Cr350      Cr  0.73861040  0.28842638  0.23475870     1.93200
Cr351      Cr  0.67436631  0.26858457  0.20812503     1.39100
O352        O  0.72101372  0.30133868  0.21584462    -1.23400
C353        C  0.94903633  0.17846771  0.22977916    -0.18100
C354        C  0.99284167  0.16693522  0.23571005    -0.20300
C355        C  0.02515229  0.20199902  0.23926968     0.20400
C356        C  0.01369880  0.24913506  0.23635524    -0.03200
C357        C  0.96971789  0.26072799  0.23017444    -0.06300
C358        C  0.93697356  0.22523337  0.22719067     0.20600
C359        C  0.95767149  0.30794834  0.22770800     0.18800
C360        C  0.99024911  0.34295770  0.23106825    -0.17800
C361        C  0.03361837  0.33152097  0.23736395    -0.20000
C362        C  0.04528986  0.28483764  0.24028304     0.20300
C363        C  0.08708695  0.27334678  0.24766513    -0.33000
C364        C  0.09805434  0.22666571  0.25092291     0.01000
C365        C  0.06776259  0.19099429  0.24633234    -0.24300
C366        C  0.89187518  0.23727673  0.22249999    -0.28900
C367        C  0.87884859  0.28428251  0.22083697     0.06700
C368        C  0.91238476  0.31940584  0.22281298    -0.27600
H369        H  0.92415526  0.15085667  0.22755595     0.11400
H370        H  0.00095829  0.13066664  0.23790351     0.12500
H371        H  0.98164658  0.37932190  0.22925872     0.11600
H372        H  0.05764261  0.35927824  0.24026560     0.10800
H373        H  0.11059484  0.30078270  0.25131341     0.16200
H374        H  0.07608536  0.15509752  0.24908615     0.12100
H375        H  0.86603178  0.21013770  0.22089056     0.15000
H376        H  0.90221459  0.35565891  0.22173397     0.14800
C377        C  0.49066162  0.14783554  0.26661119    -0.18100
C378        C  0.53555472  0.15967443  0.26168223    -0.20300
C379        C  0.54789816  0.20650720  0.25932777     0.20400
C380        C  0.51511742  0.24190372  0.26227698    -0.03200
C381        C  0.46962857  0.22989555  0.26710375    -0.06300
C382        C  0.45719056  0.18259012  0.26919312     0.20600
C383        C  0.43612591  0.26513216  0.26926995     0.18800
C384        C  0.44857684  0.31198653  0.26701788    -0.17800
C385        C  0.49367562  0.32389759  0.26234011    -0.20000
C386        C  0.52710728  0.28914936  0.25974945     0.20300
C387        C  0.57134498  0.30054748  0.25387879    -0.33000
C388        C  0.60301964  0.26513426  0.25017132     0.01000
C389        C  0.59155178  0.21839587  0.25329956    -0.24300
C390        C  0.41111024  0.17084089  0.27324570    -0.28900
C391        C  0.37714094  0.20579372  0.27485275     0.06700
C392        C  0.39030103  0.25285188  0.27310241    -0.27600
H393        H  0.48182599  0.11139444  0.26809355     0.11400
H394        H  0.56038452  0.13209524  0.25942880     0.12500
H395        H  0.42313111  0.33943717  0.26860707     0.11600
H396        H  0.50207480  0.36024184  0.26040354     0.10800
H397        H  0.57971512  0.33642134  0.25110347     0.16200
H398        H  0.61584178  0.19102942  0.25021545     0.12100
H399        H  0.40113685  0.13454697  0.27434553     0.15000
H400        H  0.36434699  0.28005111  0.27429760     0.14800
C401        C  0.48179762  0.41270104  0.20097775    -0.18100
C402        C  0.44838718  0.44805327  0.20067325    -0.20300
C403        C  0.46143684  0.49424849  0.19760204     0.20400
C404        C  0.50827815  0.50487628  0.19428629    -0.03200
C405        C  0.54209124  0.46899064  0.19449581    -0.06300
C406        C  0.52880272  0.42290918  0.19815693     0.20600
C407        C  0.58928312  0.47944857  0.19157005     0.18800
C408        C  0.60193435  0.52554027  0.18800437    -0.17800
C409        C  0.56841430  0.56120026  0.18789676    -0.20000
C410        C  0.52151786  0.55145416  0.19128133     0.20300
C411        C  0.48793510  0.58740227  0.19223382    -0.33000
C412        C  0.44136392  0.57703385  0.19614475     0.01000
C413        C  0.42852309  0.53006251  0.19834297    -0.24300
C414        C  0.56281182  0.38805954  0.19946362    -0.28900
C415        C  0.61020991  0.39834667  0.19717618     0.06700
C416        C  0.62304318  0.44396860  0.19280027    -0.27600
H417        H  0.47098582  0.37749191  0.20372483     0.11400
H418        H  0.41242346  0.43940854  0.20319335     0.12500
H419        H  0.63797896  0.53422849  0.18563737     0.11600
H420        H  0.57935970  0.59656478  0.18545096     0.10800
H421        H  0.49833211  0.62331001  0.19045406     0.16200
H422        H  0.39284146  0.52119936  0.20120833     0.12100
H423        H  0.55240435  0.35306577  0.20266730     0.15000
H424        H  0.65946591  0.45235192  0.19096517     0.14800
C425        C  0.35239592  0.46173698  0.26895260    -0.18100
C426        C  0.33916524  0.41912782  0.27550523    -0.20300
C427        C  0.29237357  0.40459779  0.27519199     0.20400
C428        C  0.25831354  0.43413903  0.26871577    -0.03200
C429        C  0.27170125  0.47681417  0.26198325    -0.06300
C430        C  0.31909485  0.49047217  0.26188779     0.20600
C431        C  0.23784041  0.50476234  0.25473073     0.18800
C432        C  0.19084930  0.49121442  0.25488227    -0.17800
C433        C  0.17759351  0.44912314  0.26158542    -0.20000
C434        C  0.21114788  0.41990875  0.26820683     0.20300
C435        C  0.19875250  0.37551883  0.27344373    -0.33000
C436        C  0.23279711  0.34505462  0.27906909     0.01000
C437        C  0.27929672  0.36006114  0.28039114    -0.24300
C438        C  0.33237540  0.53158438  0.25420445    -0.28900
C439        C  0.29882045  0.55795397  0.24630383     0.06700
C440        C  0.25169355  0.54485090  0.24691055    -0.27600
H441        H  0.38885671  0.47160646  0.26904886     0.11400
H442        H  0.36572703  0.39701892  0.28050282     0.12500
H443        H  0.16448289  0.51260826  0.24944678     0.11600
H444        H  0.14127857  0.43872412  0.26116507     0.10800
H445        H  0.16312171  0.36335585  0.27218315     0.16200
H446        H  0.30560847  0.33601283  0.28450882     0.12100
H447        H  0.36875151  0.54172556  0.25371436     0.15000
H448        H  0.22576039  0.56559375  0.24096958     0.14800
C449        C  0.21420683  0.89784346  0.24368383    -0.18100
C450        C  0.20258757  0.94180505  0.24928219    -0.20300
C451        C  0.23366188  0.97921039  0.24767022     0.20400
C452        C  0.27641424  0.97261200  0.24000288    -0.03200
C453        C  0.28851611  0.92791814  0.23456621    -0.06300
C454        C  0.25733127  0.89048883  0.23655227     0.20600
C455        C  0.33228138  0.92037896  0.22759720     0.18800
C456        C  0.36277044  0.95825477  0.22567719    -0.17800
C457        C  0.35053134  0.00277056  0.23089981    -0.20000
C458        C  0.30771516  0.01021418  0.23826619     0.20300
C459        C  0.29640652  0.05395932  0.24449415    -0.33000
C460        C  0.25495687  0.05981117  0.25283547     0.01000
C461        C  0.22346739  0.02257704  0.25412340    -0.24300
C462        C  0.27029802  0.84589144  0.23187699    -0.28900
C463        C  0.31473125  0.83719733  0.22560757     0.06700
C464        C  0.34524222  0.87492190  0.22316373    -0.27600
H465        H  0.18989227  0.86930399  0.24525169     0.11400
H466        H  0.16959589  0.94637699  0.25508828     0.12500
H467        H  0.39642731  0.95332484  0.22033190     0.11600
H468        H  0.37503167  0.03118285  0.22947445     0.10800
H469        H  0.32105782  0.08251107  0.24369745     0.16200
H470        H  0.19157329  0.02708302  0.26057876     0.12100
H471        H  0.24602575  0.81743544  0.23369944     0.15000
H472        H  0.37945042  0.86872227  0.21835029     0.14800
C473        C  0.07298068  0.92138153  0.30905378    -0.18100
C474        C  0.10629219  0.95713189  0.30875788    -0.20300
C475        C  0.09268425  0.00374135  0.30671936     0.20400
C476        C  0.04476442  0.01450110  0.30555703    -0.03200
C477        C  0.01101805  0.97836631  0.30601726    -0.06300
C478        C  0.02532716  0.93149329  0.30740843     0.20600
C479        C  0.96317013  0.98900552  0.30450655     0.18800
C480        C  0.94943683  0.03577016  0.30295935    -0.17800
C481        C  0.98282474  0.07144491  0.30236788    -0.20000
C482        C  0.03063114  0.06113460  0.30339676     0.20300
C483        C  0.06451613  0.09638325  0.30181860    -0.33000
C484        C  0.11258216  0.08587298  0.30246626     0.01000
C485        C  0.12619191  0.03945786  0.30531379    -0.24300
C486        C  0.99202012  0.89549465  0.30653933    -0.28900
C487        C  0.94434869  0.90560160  0.30446529     0.06700
C488        C  0.93014253  0.95265270  0.30394331    -0.27600
H489        H  0.08461836  0.88564734  0.31025891     0.11400
H490        H  0.14286385  0.94816493  0.30975795     0.12500
H491        H  0.91287952  0.04468791  0.30182496     0.11600
H492        H  0.97125631  0.10707774  0.30080749     0.10800
H493        H  0.05340258  0.13194033  0.29975197     0.16200
H494        H  0.16293952  0.03075968  0.30581919     0.12100
H495        H  0.00337399  0.85949945  0.30705605     0.15000
H496        H  0.89361769  0.96097221  0.30225694     0.14800
C497        C  0.07812934  0.63900655  0.23812994    -0.18100
C498        C  0.03656445  0.65283126  0.24507079    -0.20300
C499        C  0.02368506  0.70000630  0.24532630     0.20400
C500        C  0.05201340  0.73347389  0.23805850    -0.03200
C501        C  0.09407005  0.71950228  0.23104857    -0.06300
C502        C  0.10747998  0.67212458  0.23132738     0.20600
C503        C  0.12374632  0.75317121  0.22443642     0.18800
C504        C  0.11037787  0.80025162  0.22449913    -0.17800
C505        C  0.06842001  0.81402962  0.23130424    -0.20000
C506        C  0.03920410  0.78105704  0.23828913     0.20300
C507        C  0.99826379  0.79485105  0.24592179    -0.33000
C508        C  0.97109857  0.76171605  0.25369166     0.01000
C509        C  0.98371960  0.71439799  0.25314468    -0.24300
C510        C  0.15118194  0.65910351  0.22560169    -0.28900
C511        C  0.18160644  0.69272464  0.21961358     0.06700
C512        C  0.16735464  0.73946765  0.21867205    -0.27600
H513        H  0.08789614  0.60253315  0.23842150     0.11400
H514        H  0.01497657  0.62673037  0.25053693     0.12500
H515        H  0.13283739  0.82657294  0.21954572     0.11600
H516        H  0.05932050  0.85066946  0.23139298     0.10800
H517        H  0.98864508  0.83135026  0.24637711     0.16200
H518        H  0.96249116  0.68872027  0.25899480     0.12100
H519        H  0.16287025  0.62329571  0.22669464     0.15000
H520        H  0.19155042  0.76553391  0.21447550     0.14800
C521        C  0.57996809  0.66646665  0.25402880    -0.18100
C522        C  0.62420826  0.67918943  0.25919732    -0.20300
C523        C  0.63283302  0.72480964  0.26418927     0.20400
C524        C  0.59614365  0.75728087  0.26481932    -0.03200
C525        C  0.55108355  0.74412683  0.25988197    -0.06300
C526        C  0.54349032  0.69892068  0.25402239     0.20600
C527        C  0.51427571  0.77672618  0.26013508     0.18800
C528        C  0.52266768  0.82173850  0.26580720    -0.17800
C529        C  0.56755232  0.83492191  0.27055569    -0.20000
C530        C  0.60485257  0.80326212  0.26983740     0.20300
C531        C  0.65091755  0.81697470  0.27347970    -0.33000
C532        C  0.68803947  0.78508765  0.27209794     0.01000
C533        C  0.67802947  0.73872728  0.26801718    -0.24300
C534        C  0.50027470  0.68762034  0.24757846    -0.28900
C535        C  0.46416315  0.72046991  0.24715949     0.06700
C536        C  0.47058340  0.76437419  0.25398134    -0.27600
H537        H  0.57456160  0.63150588  0.24972609     0.11400
H538        H  0.65197436  0.65371468  0.25888970     0.12500
H539        H  0.49481399  0.84719925  0.26615401     0.11600
H540        H  0.57328276  0.87023768  0.27447946     0.10800
H541        H  0.65804212  0.85264919  0.27678012     0.16200
H542        H  0.70572431  0.71347103  0.26744163     0.12100
H543        H  0.49519721  0.65381925  0.24232077     0.15000
H544        H  0.44275764  0.78990323  0.25349764     0.14800
C545        C  0.73273413  0.02469851  0.21519820    -0.18100
C546        C  0.74646235  0.98146077  0.22111796    -0.20300
C547        C  0.77965356  0.97888722  0.23285594     0.20400
C548        C  0.80098850  0.02008802  0.23815632    -0.03200
C549        C  0.78738162  0.06360936  0.23212286    -0.06300
C550        C  0.75213516  0.06609120  0.22086344     0.20600
C551        C  0.80711045  0.10476661  0.23801534     0.18800
C552        C  0.84196480  0.10223372  0.24920997    -0.17800
C553        C  0.85522845  0.05917628  0.25524153    -0.20000
C554        C  0.83395752  0.01809582  0.25010490     0.20300
C555        C  0.84310141  0.97547159  0.25728812    -0.33000
C556        C  0.81991262  0.93477052  0.25265430     0.01000
C557        C  0.78988067  0.93626850  0.23999018    -0.24300
C558        C  0.73512467  0.10987511  0.21616180    -0.28900
C559        C  0.75247585  0.15065427  0.22290003     0.06700
C560        C  0.78964302  0.14782753  0.23332065    -0.27600
H561        H  0.70588767  0.02582357  0.20652278     0.11400
H562        H  0.72991167  0.95011751  0.21687338     0.12500
H563        H  0.85772084  0.13367441  0.25369996     0.11600
H564        H  0.88094644  0.05815154  0.26428658     0.10800
H565        H  0.86679155  0.97427452  0.26691593     0.16200
H566        H  0.77199325  0.90488533  0.23637741     0.12100
H567        H  0.70642669  0.11205625  0.20815544     0.15000
H568        H  0.80332002  0.17935497  0.23844757     0.14800
C569        C  0.83402885  0.48132510  0.27452856    -0.18100
C570        C  0.84567657  0.52432910  0.28110743    -0.20300
C571        C  0.82444157  0.56565589  0.27605007     0.20400
C572        C  0.79014932  0.56315534  0.26447308    -0.03200
C573        C  0.77829210  0.51984248  0.25788184    -0.06300
C574        C  0.80079129  0.47877943  0.26277754     0.20600
C575        C  0.74522008  0.51800055  0.24595626     0.18800
C576        C  0.72326937  0.55898524  0.24105027    -0.17800
C577        C  0.73552180  0.60181776  0.24738949    -0.20000
C578        C  0.76934467  0.60421362  0.25891202     0.20300
C579        C  0.78443919  0.64731122  0.26433935    -0.33000
C580        C  0.81914054  0.65059132  0.27560051     0.01000
C581        C  0.83827428  0.60957981  0.28176925    -0.24300
C582        C  0.79076254  0.43629040  0.25547495    -0.28900
C583        C  0.75917152  0.43472706  0.24316666     0.06700
C584        C  0.73594293  0.47557940  0.23871080    -0.27600
H585        H  0.85166379  0.45015647  0.27843885     0.11400
H586        H  0.87210488  0.52535868  0.28993167     0.12500
H587        H  0.69766080  0.55811276  0.23197307     0.11600
H588        H  0.71940315  0.63322006  0.24300525     0.10800
H589        H  0.77101799  0.67872339  0.25912992     0.16200
H590        H  0.86588048  0.61195248  0.29017593     0.12100
H591        H  0.80888312  0.40488509  0.25894936     0.15000
H592        H  0.71125022  0.47451789  0.22935852     0.14800
C593        C  0.19914203  0.22369394  0.38733378    -0.18100
C594        C  0.18874686  0.22247504  0.37176619    -0.20300
C595        C  0.22444416  0.21723413  0.36098199     0.20400
C596        C  0.27118543  0.21442630  0.36591009    -0.03200
C597        C  0.28172640  0.21624824  0.38161921    -0.06300
C598        C  0.24545308  0.22011914  0.39240011     0.20600
C599        C  0.32845054  0.21308433  0.38653719     0.18800
C600        C  0.36421164  0.20856900  0.37574436    -0.17800
C601        C  0.35372940  0.20624749  0.36021054    -0.20000
C602        C  0.30733362  0.20868551  0.35518051     0.20300
C603        C  0.29640347  0.20434638  0.33966238    -0.33000
C604        C  0.24978649  0.20597218  0.33467731     0.01000
C605        C  0.21410157  0.21348899  0.34540795    -0.24300
C606        C  0.25605807  0.21934283  0.40803532    -0.28900
C607        C  0.30256173  0.21558539  0.41302938     0.06700
C608        C  0.33856715  0.21334960  0.40216447    -0.27600
H609        H  0.17086468  0.22693710  0.39542629     0.11400
H610        H  0.15266591  0.22479966  0.36817466     0.12500
H611        H  0.40028206  0.20609866  0.37933452     0.11600
H612        H  0.38192252  0.20200777  0.35213458     0.10800
H613        H  0.32416201  0.19895264  0.33149211     0.16200
H614        H  0.17804586  0.21479983  0.34171344     0.12100
H615        H  0.22813307  0.22118328  0.41631301     0.15000
H616        H  0.37447801  0.21000202  0.40587688     0.14800
C617        C  0.22426373  0.43575990  0.47038589    -0.18100
C618        C  0.20960627  0.47758191  0.47712727    -0.20300
C619        C  0.24029930  0.50371976  0.48622127     0.20400
C620        C  0.28664488  0.48794318  0.48816159    -0.03200
C621        C  0.30158982  0.44614143  0.48121256    -0.06300
C622        C  0.27003463  0.41942097  0.47249055     0.20600
C623        C  0.34756861  0.43001755  0.48360873     0.18800
C624        C  0.37854697  0.45629507  0.49246800    -0.17800
C625        C  0.36375230  0.49746722  0.49936485    -0.20000
C626        C  0.31776118  0.51309570  0.49747488     0.20300
C627        C  0.30220254  0.55286232  0.50508303    -0.33000
C628        C  0.25602503  0.56863259  0.50348807     0.01000
C629        C  0.22535594  0.54454943  0.49374837    -0.24300
C630        C  0.28417778  0.37574887  0.46680200    -0.28900
C631        C  0.32924881  0.35875388  0.46989275     0.06700
C632        C  0.36103170  0.38659686  0.47788508    -0.27600
H633        H  0.19949647  0.41572770  0.46375704     0.11400
H634        H  0.17393724  0.48897146  0.47548609     0.12500
H635        H  0.41393435  0.44436923  0.49438953     0.11600
H636        H  0.38805830  0.51664649  0.50642817     0.10800
H637        H  0.32622178  0.57163798  0.51238704     0.16200
H638        H  0.18972171  0.55653732  0.49248810     0.12100
H639        H  0.25925471  0.35360727  0.46097950     0.15000
H640        H  0.39540273  0.37293387  0.48051363     0.14800
C641        C  0.19548420  0.01565560  0.51416090    -0.18100
C642        C  0.18286195  0.97084420  0.51904149    -0.20300
C643        C  0.21485971  0.93389120  0.51827427     0.20400
C644        C  0.26044220  0.94262296  0.51286187    -0.03200
C645        C  0.27307685  0.98768334  0.50783992    -0.06300
C646        C  0.24028492  0.02432126  0.50835709     0.20600
C647        C  0.31792967  0.99555454  0.50171311     0.18800
C648        C  0.35036861  0.95903983  0.50127667    -0.17800
C649        C  0.33804384  0.91463361  0.50640273    -0.20000
C650        C  0.29297811  0.90596024  0.51193406     0.20300
C651        C  0.27946757  0.86085050  0.51599960    -0.33000
C652        C  0.23360592  0.85117022  0.52081551     0.01000
C653        C  0.20171327  0.88814377  0.52230371    -0.24300
C654        C  0.25224283  0.06830328  0.50242053    -0.28900
C655        C  0.29596406  0.07534009  0.49557193     0.06700
C656        C  0.32885843  0.03918426  0.49550164    -0.27600
H657        H  0.16984267  0.04331788  0.51461528     0.11400
H658        H  0.14777467  0.96492791  0.52316973     0.12500
H659        H  0.38497647  0.96459895  0.49667274     0.11600
H660        H  0.36340653  0.88673208  0.50565650     0.10800
H661        H  0.30459048  0.83281060  0.51492214     0.16200
H662        H  0.16637010  0.88108060  0.52599799     0.12100
H663        H  0.22659817  0.09603873  0.50219518     0.15000
H664        H  0.36242386  0.04465216  0.49009456     0.14800
C665        C  0.68393054  0.79482155  0.37462242    -0.18100
C666        C  0.69593639  0.79466828  0.35916448    -0.20300
C667        C  0.74273263  0.79064977  0.35466136     0.20400
C668        C  0.77770518  0.78631830  0.36591044    -0.03200
C669        C  0.76563835  0.78714948  0.38154489    -0.06300
C670        C  0.71851989  0.79139083  0.38590982     0.20600
C671        C  0.80081602  0.78464203  0.39278678     0.18800
C672        C  0.84754516  0.78006571  0.38828984    -0.17800
C673        C  0.85940782  0.77854678  0.37283995    -0.20000
C674        C  0.82482071  0.78203100  0.36155974     0.20300
C675        C  0.83670722  0.78232821  0.34603644    -0.33000
C676        C  0.80229940  0.78796116  0.33469400     0.01000
C677        C  0.75524536  0.79176415  0.33915376    -0.24300
C678        C  0.70689843  0.79321719  0.40145721    -0.28900
C679        C  0.74185022  0.79225793  0.41276226     0.06700
C680        C  0.78876388  0.78769243  0.40828911    -0.27600
H681        H  0.64757473  0.79823899  0.37775319     0.11400
H682        H  0.66856080  0.79797877  0.35071893     0.12500
H683        H  0.87503657  0.77796445  0.39673632     0.11600
H684        H  0.89578082  0.77528572  0.36971012     0.10800
H685        H  0.87308425  0.77978971  0.34281532     0.16200
H686        H  0.72840589  0.79612536  0.33056934     0.12100
H687        H  0.67071728  0.79733345  0.40474105     0.15000
H688        H  0.81593089  0.78694735  0.41687933     0.14800
C689        C  0.47420813  0.93066371  0.43888075    -0.18100
C690        C  0.44085625  0.96633806  0.43946858    -0.20300
C691        C  0.45463206  0.01309178  0.44094991     0.20400
C692        C  0.50268882  0.02394558  0.44139124    -0.03200
C693        C  0.53639270  0.98795295  0.44064233    -0.06300
C694        C  0.52204171  0.94102094  0.43968636     0.20600
C695        C  0.58437634  0.99886193  0.44142271     0.18800
C696        C  0.59824925  0.04560027  0.44267701    -0.17800
C697        C  0.56494363  0.08112286  0.44354490    -0.20000
C698        C  0.51712037  0.07061656  0.44307653     0.20300
C699        C  0.48358716  0.10588109  0.44470244    -0.33000
C700        C  0.43547262  0.09550214  0.44465079     0.01000
C701        C  0.42131392  0.04895917  0.44245775    -0.24300
C702        C  0.55563060  0.90527933  0.44021426    -0.28900
C703        C  0.60349743  0.91583075  0.44157044     0.06700
C704        C  0.61756464  0.96282524  0.44164025    -0.27600
H705        H  0.46252406  0.89484163  0.43808026     0.11400
H706        H  0.40420050  0.95724073  0.43907643     0.12500
H707        H  0.63489806  0.05462630  0.44333446     0.11600
H708        H  0.57661490  0.11681881  0.44482564     0.10800
H709        H  0.49512929  0.14150360  0.44633737     0.16200
H710        H  0.38449412  0.04040293  0.44250605     0.12100
H711        H  0.54440489  0.86920215  0.44011948     0.15000
H712        H  0.65421939  0.97138357  0.44284582     0.14800
C713        C  0.47973411  0.83575117  0.51673399    -0.18100
C714        C  0.43732607  0.82120260  0.52309805    -0.20300
C715        C  0.42564785  0.77368030  0.52367931     0.20400
C716        C  0.45801540  0.74032271  0.51846196    -0.03200
C717        C  0.50076286  0.75500619  0.51203595    -0.06300
C718        C  0.51125379  0.80305886  0.51081149     0.20600
C719        C  0.53179421  0.72165829  0.50607476     0.18800
C720        C  0.52133336  0.67402480  0.50735697    -0.17800
C721        C  0.47897471  0.65951824  0.51364292    -0.20000
C722        C  0.44654250  0.69241254  0.51882846     0.20300
C723        C  0.40188797  0.67846368  0.52353259    -0.33000
C724        C  0.36883604  0.71170918  0.52802102     0.01000
C725        C  0.38128480  0.75904467  0.52856210    -0.24300
C726        C  0.55173211  0.81744536  0.50297789    -0.28900
C727        C  0.58073010  0.78421793  0.49605797     0.06700
C728        C  0.57145463  0.73650617  0.49817376    -0.27600
H729        H  0.48719125  0.87270961  0.51600221     0.11400
H730        H  0.41301175  0.84724794  0.52714773     0.12500
H731        H  0.54515721  0.64802610  0.50297533     0.11600
H732        H  0.47093092  0.62263375  0.51398193     0.10800
H733        H  0.39192571  0.64204662  0.52293505     0.16200
H734        H  0.35543246  0.78464334  0.53186698     0.12100
H735        H  0.55906547  0.85423001  0.50146610     0.15000
H736        H  0.59441249  0.71080482  0.49312329     0.14800
C737        C  0.96011787  0.68733417  0.50225035    -0.18100
C738        C  0.91613069  0.70065618  0.49704772    -0.20300
C739        C  0.91073544  0.74132563  0.48834264     0.20400
C740        C  0.94997987  0.76829660  0.48444722    -0.03200
C741        C  0.99471589  0.75437679  0.48952711    -0.06300
C742        C  0.99948513  0.71413576  0.49868379     0.20600
C743        C  0.03432230  0.78139261  0.48589654     0.18800
C744        C  0.02865010  0.82181604  0.47699697    -0.17800
C745        C  0.98413385  0.83585293  0.47206685    -0.20000
C746        C  0.94434459  0.80964520  0.47585311     0.20300
C747        C  0.89900359  0.82442003  0.47160947    -0.33000
C748        C  0.85959337  0.79803722  0.47590254     0.01000
C749        C  0.86638447  0.75592484  0.48389542    -0.24300
C750        C  0.04318225  0.70224582  0.50463001    -0.28900
C751        C  0.08265857  0.72954805  0.50151295     0.06700
C752        C  0.07837175  0.76843661  0.49176330    -0.27600
H753        H  0.96325387  0.65635088  0.50925653     0.11400
H754        H  0.88614319  0.67964664  0.50010586     0.12500
H755        H  0.05855598  0.84309204  0.47408847     0.11600
H756        H  0.98078762  0.86759295  0.46545545     0.10800
H757        H  0.89437064  0.85676652  0.46540381     0.16200
H758        H  0.83672616  0.73463025  0.48710341     0.12100
H759        H  0.04627727  0.67245593  0.51219327     0.15000
H760        H  0.10857467  0.79012635  0.48955643     0.14800
C761        C  0.09469622  0.46719098  0.55681601    -0.18100
C762        C  0.05911160  0.43381420  0.55750855    -0.20300
C763        C  0.01210971  0.44746844  0.55755311     0.20400
C764        C  0.00096931  0.49540743  0.55727925    -0.03200
C765        C  0.03697588  0.52918417  0.55668450    -0.06300
C766        C  0.08401364  0.51490839  0.55621305     0.20600
C767        C  0.02585630  0.57709750  0.55608257     0.18800
C768        C  0.97885119  0.59078360  0.55634393    -0.17800
C769        C  0.94322146  0.55736080  0.55679898    -0.20000
C770        C  0.95388887  0.50957529  0.55709283     0.20300
C771        C  0.91836945  0.47575596  0.55665996    -0.33000
C772        C  0.92910792  0.42773024  0.55644842     0.01000
C773        C  0.97617948  0.41400757  0.55729209    -0.24300
C774        C  0.11947124  0.54842555  0.55467057    -0.28900
C775        C  0.10876100  0.59627071  0.55364074     0.06700
C776        C  0.06179461  0.61032193  0.55472107    -0.27600
H777        H  0.13064145  0.45560451  0.55650630     0.11400
H778        H  0.06836875  0.39722260  0.55770934     0.12500
H779        H  0.96959042  0.62736851  0.55589345     0.11600
H780        H  0.90724945  0.56890144  0.55667402     0.10800
H781        H  0.88230986  0.48692905  0.55599261     0.16200
H782        H  0.98499937  0.37730187  0.55696352     0.12100
H783        H  0.15545694  0.53710453  0.55391199     0.15000
H784        H  0.05301523  0.64697487  0.55383785     0.14800
C785        C  0.01296024  0.20075675  0.48046862    -0.18100
C786        C  0.05687660  0.18793155  0.47480067    -0.20300
C787        C  0.09644170  0.21532959  0.47781537     0.20400
C788        C  0.09115241  0.25664085  0.48639711    -0.03200
C789        C  0.04709289  0.26911250  0.49235515    -0.06300
C790        C  0.00779028  0.24092040  0.48944102     0.20600
C791        C  0.04274707  0.30906778  0.50162441     0.18800
C792        C  0.08179961  0.33728914  0.50430128    -0.17800
C793        C  0.12506652  0.32552407  0.49814603    -0.20000
C794        C  0.13014059  0.28495380  0.48940744     0.20300
C795        C  0.17398673  0.27164748  0.48407923    -0.33000
C796        C  0.18059974  0.22933299  0.47618325     0.01000
C797        C  0.14130054  0.20165417  0.47282164    -0.24300
C798        C  0.96452769  0.25255390  0.49600332    -0.28900
C799        C  0.96074800  0.29096601  0.50588225     0.06700
C800        C  0.99983251  0.31934696  0.50845401    -0.27600
H801        H  0.98318863  0.17866395  0.47810639     0.11400
H802        H  0.05996473  0.15624897  0.46820042     0.12500
H803        H  0.07901274  0.36817105  0.51131836     0.11600
H804        H  0.15484901  0.34762578  0.50051893     0.10800
H805        H  0.20351633  0.29387647  0.48667757     0.16200
H806        H  0.14572593  0.16916094  0.46673701     0.12100
H807        H  0.93449383  0.23033696  0.49412229     0.15000
H808        H  0.99694744  0.34903888  0.51601453     0.14800
C809        C  0.55421239  0.29011873  0.53710265    -0.18100
C810        C  0.51145235  0.27500115  0.53102641    -0.20300
C811        C  0.50941344  0.25417817  0.51656931     0.20400
C812        C  0.55119768  0.24690412  0.50844648    -0.03200
C813        C  0.59419136  0.26208574  0.51457030    -0.06300
C814        C  0.59580280  0.28476264  0.52884203     0.20600
C815        C  0.63528484  0.25654447  0.50602005     0.18800
C816        C  0.63376574  0.23435143  0.49183337    -0.17800
C817        C  0.59138213  0.21942352  0.48578073    -0.20000
C818        C  0.54987434  0.22656979  0.49382293     0.20300
C819        C  0.50695721  0.21600881  0.48710558    -0.33000
C820        C  0.46517089  0.22506980  0.49477582     0.01000
C821        C  0.46640219  0.24262624  0.50972339    -0.24300
C822        C  0.63854195  0.30337469  0.53417718    -0.28900
C823        C  0.67894942  0.30019279  0.52513445     0.06700
C824        C  0.67698349  0.27532546  0.51137382    -0.27600
H825        H  0.55454913  0.30713784  0.54809343     0.11400
H826        H  0.47980331  0.28074266  0.53746819     0.12500
H827        H  0.66520192  0.23003831  0.48516211     0.11600
H828        H  0.59089680  0.20363184  0.47459338     0.10800
H829        H  0.50585906  0.20247294  0.47559199     0.16200
H830        H  0.43400548  0.25008244  0.51556829     0.12100
H831        H  0.63981507  0.32216934  0.54485069     0.15000
H832        H  0.70800373  0.27200884  0.50442362     0.14800
C833        C  0.72219805  0.12480046  0.49262565    -0.18100
C834        C  0.70922900  0.08183336  0.48661084    -0.20300
C835        C  0.72977736  0.04084120  0.49208156     0.20400
C836        C  0.76284899  0.04302728  0.50401857    -0.03200
C837        C  0.77627355  0.08661404  0.51001693    -0.06300
C838        C  0.75598466  0.12741831  0.50415502     0.20600
C839        C  0.81062246  0.08947666  0.52157086     0.18800
C840        C  0.83012916  0.04808684  0.52728396    -0.17800
C841        C  0.81651668  0.00468949  0.52141523    -0.20000
C842        C  0.78332864  0.00184906  0.50966083     0.20300
C843        C  0.77122623  0.95884114  0.50311226    -0.33000
C844        C  0.73988085  0.95688522  0.49075913     0.01000
C845        C  0.71878833  0.99790926  0.48548720    -0.24300
C846        C  0.77029648  0.17048196  0.50964493    -0.28900
C847        C  0.80514210  0.17450991  0.52094353     0.06700
C848        C  0.82514668  0.13362098  0.52696312    -0.27600
H849        H  0.70637721  0.15609575  0.48805813     0.11400
H850        H  0.68366374  0.08072736  0.47752391     0.12500
H851        H  0.85628616  0.04928107  0.53618017     0.11600
H852        H  0.83254890  0.97335450  0.52590217     0.10800
H853        H  0.78777787  0.92717992  0.50715142     0.16200
H854        H  0.69437115  0.99645940  0.47605907     0.12100
H855        H  0.75455489  0.20125852  0.50467711     0.15000
H856        H  0.85186826  0.13612001  0.53565417     0.14800
C857        C  0.76214845  0.55214187  0.46340249    -0.18100
C858        C  0.77835637  0.50981390  0.46945055    -0.20300
C859        C  0.78988899  0.50606238  0.48495331     0.20400
C860        C  0.78671864  0.54583662  0.49430883    -0.03200
C861        C  0.77055316  0.58833786  0.48821849    -0.06300
C862        C  0.75728045  0.59151213  0.47273809     0.20600
C863        C  0.76624025  0.62726776  0.49780310     0.18800
C864        C  0.77910206  0.62426143  0.51317083    -0.17800
C865        C  0.79464908  0.58219655  0.51922031    -0.20000
C866        C  0.79774916  0.54273189  0.50995138     0.20300
C867        C  0.80929092  0.49971984  0.51627420    -0.33000
C868        C  0.80985122  0.45960136  0.50726518     0.01000
C869        C  0.80209971  0.46293541  0.49149543    -0.24300
C870        C  0.73828408  0.63356468  0.46707291    -0.28900
C871        C  0.73248156  0.67187774  0.47685097     0.06700
C872        C  0.74786414  0.66842605  0.49204891    -0.27600
H873        H  0.75252760  0.55380580  0.45149146     0.11400
H874        H  0.78073765  0.47970276  0.46208172     0.12500
H875        H  0.77604750  0.65418731  0.52060435     0.11600
H876        H  0.80319116  0.58025102  0.53122187     0.10800
H877        H  0.81559964  0.49691716  0.52842289     0.16200
H878        H  0.80225214  0.43167143  0.48459802     0.12100
H879        H  0.72708140  0.63606162  0.45532223     0.15000
H880        H  0.74484018  0.69789483  0.49968818     0.14800
C881        C  0.93034461  0.45498964  0.94289590    -0.18100
C882        C  0.96324786  0.41897726  0.94283292    -0.20300
C883        C  0.01116410  0.42904218  0.94308033     0.20400
C884        C  0.02613983  0.47584568  0.94322726    -0.03200
C885        C  0.99289340  0.51221963  0.94337486    -0.06300
C886        C  0.94474934  0.50173477  0.94325197     0.20600
C887        C  0.00784530  0.55898621  0.94402303     0.18800
C888        C  0.05577635  0.56903501  0.94428649    -0.17800
C889        C  0.08868784  0.53303541  0.94404872    -0.20000
C890        C  0.07428859  0.48631334  0.94359354     0.20300
C891        C  0.10709309  0.44991078  0.94392968    -0.33000
C892        C  0.09234706  0.40316202  0.94420030     0.01000
C893        C  0.04428385  0.39311313  0.94359067    -0.24300
C894        C  0.91191256  0.53806833  0.94394412    -0.28900
C895        C  0.92655386  0.58478854  0.94502154     0.06700
C896        C  0.97467874  0.59484616  0.94483622    -0.27600
H897        H  0.89358087  0.44624611  0.94286311     0.11400
H898        H  0.95118734  0.38318643  0.94274827     0.12500
H899        H  0.06782892  0.60478141  0.94483842     0.11600
H900        H  0.12544956  0.54174678  0.94441218     0.10800
H901        H  0.14397569  0.45798559  0.94465372     0.16200
H902        H  0.03255711  0.35719315  0.94384556     0.12100
H903        H  0.87503056  0.52981671  0.94431912     0.15000
H904        H  0.98644422  0.63064323  0.94573765     0.14800
C905        C  0.34000087  0.65447818  0.12586810    -0.18100
C906        C  0.33713911  0.66448193  0.11029351    -0.20300
C907        C  0.32645921  0.70967166  0.10525502     0.20400
C908        C  0.31885413  0.74521423  0.11607545    -0.03200
C909        C  0.32243458  0.73526953  0.13182012    -0.06300
C910        C  0.33263378  0.68957703  0.13671420     0.20600
C911        C  0.31597083  0.77104878  0.14264208     0.18800
C912        C  0.30545204  0.81629243  0.13759590    -0.17800
C913        C  0.30129396  0.82599833  0.12202195    -0.20000
C914        C  0.30802806  0.79073546  0.11117713     0.20300
C915        C  0.30488396  0.80041486  0.09553083    -0.33000
C916        C  0.31333448  0.76543846  0.08460123     0.01000
C917        C  0.32388939  0.72003962  0.08961192    -0.24300
C918        C  0.33537398  0.67973601  0.15235462    -0.28900
C919        C  0.32921590  0.71514402  0.16324855     0.06700
C920        C  0.32007039  0.76089994  0.15828254    -0.27600
H921        H  0.34812628  0.61925119  0.12943445     0.11400
H922        H  0.34322466  0.63677795  0.10217628     0.12500
H923        H  0.30030669  0.84420982  0.14570499     0.11600
H924        H  0.29310788  0.86121399  0.11845228     0.10800
H925        H  0.29722094  0.83568658  0.09187463     0.16200
H926        H  0.33069479  0.69290134  0.08134701     0.12100
H927        H  0.34317078  0.64454152  0.15606820     0.15000
H928        H  0.31538793  0.78836626  0.16659282     0.14800
C929        C  0.00343199  0.76280798  0.03031697    -0.18100
C930        C  0.04645611  0.77767975  0.03613457    -0.20300
C931        C  0.08805550  0.76684293  0.02853204     0.20400
C932        C  0.08615504  0.73973441  0.01510299    -0.03200
C933        C  0.04294158  0.72464934  0.00927623    -0.06300
C934        C  0.00129488  0.73675438  0.01681997     0.20600
C935        C  0.04133123  0.69940884  0.99547984     0.18800
C936        C  0.08275402  0.68801370  0.98793433    -0.17800
C937        C  0.12547381  0.70307936  0.99367333    -0.20000
C938        C  0.12727751  0.72950098  0.00706316     0.20300
C939        C  0.16942381  0.74769356  0.01211322    -0.33000
C940        C  0.17178895  0.77560360  0.02520429     0.01000
C941        C  0.13128160  0.78418786  0.03368361    -0.24300
C942        C  0.95828916  0.72465166  0.01027649    -0.28900
C943        C  0.95690470  0.70167917  0.99619655     0.06700
C944        C  0.99824701  0.68824270  0.98902364    -0.27600
H945        H  0.97175029  0.77253150  0.03620520     0.11400
H946        H  0.04709626  0.79850745  0.04639515     0.12500
H947        H  0.08201473  0.66855742  0.97737900     0.11600
H948        H  0.15704521  0.69495098  0.98745949     0.10800
H949        H  0.20052649  0.74161087  0.00540794     0.16200
H950        H  0.13300055  0.80630126  0.04364517     0.12100
H951        H  0.92604650  0.73584549  0.01555031     0.15000
H952        H  0.99673299  0.67115401  0.97802887     0.14800
C953        C  0.57237930  0.82410561  0.00258463    -0.18100
C954        C  0.61664388  0.81118258  0.99761322    -0.20300
C955        C  0.62250181  0.77109226  0.98871911     0.20400
C956        C  0.58344761  0.74483371  0.98415603    -0.03200
C957        C  0.53856873  0.75831626  0.98899367    -0.06300
C958        C  0.53334880  0.79737660  0.99860417     0.20600
C959        C  0.49931092  0.73145750  0.98487836     0.18800
C960        C  0.50526836  0.69230177  0.97550301    -0.17800
C961        C  0.54996159  0.67866434  0.97081714    -0.20000
C962        C  0.58944611  0.70412798  0.97533692     0.20300
C963        C  0.63483801  0.68883863  0.97171856    -0.33000
C964        C  0.67392463  0.71406635  0.97683530     0.01000
C965        C  0.66704341  0.75594612  0.98486526    -0.24300
C966        C  0.48967622  0.80752969  0.00477848    -0.28900
C967        C  0.45100473  0.77949959  0.00142543     0.06700
C968        C  0.45537890  0.74275368  0.99094376    -0.27600
H969        H  0.56881895  0.85430894  0.00987817     0.11400
H970        H  0.64649618  0.83174364  0.00111954     0.12500
H971        H  0.47551583  0.67137344  0.97218170     0.11600
H972        H  0.55371651  0.64758436  0.96395688     0.10800
H973        H  0.63971141  0.65683659  0.96540243     0.16200
H974        H  0.69663465  0.77631919  0.98869193     0.12100
H975        H  0.48611371  0.83599623  0.01280543     0.15000
H976        H  0.42548514  0.72091106  0.98845755     0.14800
C977        C  0.19555505  0.59028862  0.00459328    -0.18100
C978        C  0.18293066  0.54666605  0.99885263    -0.20300
C979        C  0.21489504  0.50968359  0.99900284     0.20400
C980        C  0.25963659  0.51642232  0.00539885    -0.03200
C981        C  0.27270749  0.56087626  0.01094368    -0.06300
C982        C  0.24060435  0.59794623  0.01035283     0.20600
C983        C  0.31818366  0.56855653  0.01666218     0.18800
C984        C  0.34956546  0.53100728  0.01724768    -0.17800
C985        C  0.33644841  0.48678001  0.01192884    -0.20000
C986        C  0.29176847  0.47920641  0.00580254     0.20300
C987        C  0.27910625  0.43566530  0.99961446    -0.33000
C988        C  0.23532702  0.42953127  0.99259808     0.01000
C989        C  0.20334368  0.46657261  0.99246010    -0.24300
C990        C  0.25446342  0.64246155  0.01503369    -0.28900
C991        C  0.30041114  0.65145367  0.01998252     0.06700
C992        C  0.33181268  0.61385822  0.02118846    -0.27600
H993        H  0.17036367  0.61837431  0.00420224     0.11400
H994        H  0.14834802  0.54202843  0.99410731     0.12500
H995        H  0.38454973  0.53598969  0.02162147     0.11600
H996        H  0.36163358  0.45867505  0.01233364     0.10800
H997        H  0.30412706  0.40735004  0.99951000     0.16200
H998        H  0.16971942  0.46196896  0.98699895     0.12100
H999        H  0.22950008  0.67059534  0.01440005     0.15000
H1000       H  0.36717021  0.62013780  0.02504249     0.14800
C1001       C  0.16265645  0.06122367  0.00149491    -0.18100
C1002       C  0.17970584  0.02155398  0.00872390    -0.20300
C1003       C  0.21979261  0.99932919  0.00323521     0.20400
C1004       C  0.24270377  0.01646678  0.99021806    -0.03200
C1005       C  0.22568872  0.05691687  0.98297087    -0.06300
C1006       C  0.18575229  0.07939769  0.98877526     0.20600
C1007       C  0.24956257  0.07590891  0.97034996     0.18800
C1008       C  0.28929468  0.05295035  0.96478294    -0.17800
C1009       C  0.30571388  0.01215091  0.97183244    -0.20000
C1010       C  0.28301978  0.99382883  0.98468886     0.20300
C1011       C  0.29986275  0.95364854  0.99221956    -0.33000
C1012       C  0.27710007  0.93688268  0.00533277     0.01000
C1013       C  0.23725878  0.96029566  0.01068233    -0.24300
C1014       C  0.17113926  0.12133488  0.98239961    -0.28900
C1015       C  0.19660510  0.14231248  0.97066134     0.06700
C1016       C  0.23472451  0.11882836  0.96418552    -0.27600
H1017       H  0.13207232  0.07834948  0.00607424     0.11400
H1018       H  0.16178058  0.00849572  0.01871020     0.12500
H1019       H  0.30811765  0.06695106  0.95511998     0.11600
H1020       H  0.33663330  0.99537304  0.96737888     0.10800
H1021       H  0.33050911  0.93582109  0.98799380     0.16200
H1022       H  0.21891293  0.94773014  0.02066136     0.12100
H1023       H  0.14191634  0.13969821  0.98738487     0.15000
H1024       H  0.25479560  0.13553653  0.95526565     0.14800
C1025       C  0.80426399  0.27072712  0.12852111    -0.18100
C1026       C  0.80101275  0.25940446  0.11299454    -0.20300
C1027       C  0.75801502  0.24665942  0.10649978     0.20400
C1028       C  0.71784675  0.24612199  0.11576232    -0.03200
C1029       C  0.72120676  0.25710534  0.13140059    -0.06300
C1030       C  0.76464164  0.26929824  0.13791731     0.20600
C1031       C  0.68096950  0.25543761  0.14052753     0.18800
C1032       C  0.63775014  0.24377056  0.13409247    -0.17800
C1033       C  0.63437306  0.23328677  0.11866488    -0.20000
C1034       C  0.67419749  0.23411628  0.10945540     0.20300
C1035       C  0.67092069  0.22265916  0.09406833    -0.33000
C1036       C  0.71064433  0.22209775  0.08472238     0.01000
C1037       C  0.75429835  0.23415109  0.09099661    -0.24300
C1038       C  0.76746708  0.27935141  0.15367506    -0.28900
C1039       C  0.72725570  0.27672014  0.16286536     0.06700
C1040       C  0.68430971  0.26509089  0.15600648    -0.27600
H1041       H  0.83791696  0.28017307  0.13320989     0.11400
H1042       H  0.83223389  0.26038283  0.10607844     0.12500
H1043       H  0.60653810  0.24252671  0.14101885     0.11600
H1044       H  0.60063896  0.22415800  0.11395923     0.10800
H1045       H  0.63718401  0.21317602  0.08941272     0.16200
H1046       H  0.78502894  0.23413703  0.08383627     0.12100
H1047       H  0.80065647  0.28858317  0.15875375     0.15000
H1048       H  0.65271320  0.26351854  0.16274528     0.14800
C1049       C  0.45933888  0.07346628  0.05530659    -0.18100
C1050       C  0.42603009  0.03792492  0.05576697    -0.20300
C1051       C  0.43984626  0.99101939  0.05574895     0.20400
C1052       C  0.48771018  0.97973799  0.05578123    -0.03200
C1053       C  0.52141763  0.01569916  0.05540910    -0.06300
C1054       C  0.50703371  0.06271584  0.05490773     0.20600
C1055       C  0.56936069  0.00460135  0.05504114     0.18800
C1056       C  0.58309417  0.95762045  0.05529803    -0.17800
C1057       C  0.54965909  0.92196886  0.05558418    -0.20000
C1058       C  0.50185153  0.93260518  0.05564651     0.20300
C1059       C  0.46798442  0.89710208  0.05493581    -0.33000
C1060       C  0.42020097  0.90825956  0.05416223     0.01000
C1061       C  0.40656202  0.95532830  0.05505067    -0.24300
C1062       C  0.54045424  0.09815036  0.05357655    -0.28900
C1063       C  0.58825109  0.08747237  0.05290841     0.06700
C1064       C  0.60254803  0.04062014  0.05395879    -0.27600
H1065       H  0.44775243  0.10939349  0.05500008     0.11400
H1066       H  0.38938759  0.04713500  0.05578398     0.12500
H1067       H  0.61971826  0.94841164  0.05499999     0.11600
H1068       H  0.56121317  0.88603088  0.05547883     0.10800
H1069       H  0.47891423  0.86102584  0.05420602     0.16200
H1070       H  0.36989060  0.96441863  0.05457756     0.12100
H1071       H  0.52919783  0.13414752  0.05279606     0.15000
H1072       H  0.63930981  0.03209822  0.05325329     0.14800
C1073       C  0.46420122  0.33019512  0.97916143    -0.18100
C1074       C  0.50869021  0.31833292  0.98439962    -0.20300
C1075       C  0.51936671  0.27201899  0.98817899     0.20400
C1076       C  0.48539809  0.23695934  0.98629997    -0.03200
C1077       C  0.44030261  0.24903332  0.98114141    -0.06300
C1078       C  0.42956524  0.29597913  0.97769073     0.20600
C1079       C  0.40550154  0.21449796  0.98003451     0.18800
C1080       C  0.41647981  0.16799486  0.98356750    -0.17800
C1081       C  0.46126218  0.15598428  0.98861260    -0.20000
C1082       C  0.49581671  0.19028013  0.99025448     0.20300
C1083       C  0.53967497  0.17933978  0.99654829    -0.33000
C1084       C  0.57244856  0.21478700  0.99916434     0.01000
C1085       C  0.56257943  0.26063855  0.99458316    -0.24300
C1086       C  0.38395570  0.30823627  0.97343517    -0.28900
C1087       C  0.34866167  0.27437186  0.97298191     0.06700
C1088       C  0.35993892  0.22740299  0.97598850    -0.27600
H1089       H  0.45656530  0.36634020  0.97659892     0.11400
H1090       H  0.53448982  0.34559621  0.98580661     0.12500
H1091       H  0.39012604  0.14103179  0.98273081     0.11600
H1092       H  0.46852254  0.12005119  0.99159130     0.10800
H1093       H  0.54699801  0.14418182  0.00041078     0.16200
H1094       H  0.58781564  0.28798590  0.99681078     0.12100
H1095       H  0.37537784  0.34445080  0.97129374     0.15000
H1096       H  0.33285115  0.20102630  0.97559361     0.14800
C1097       C  0.96298025  0.32567013  0.01090433    -0.18100
C1098       C  0.91948493  0.31372732  0.01702063    -0.20300
C1099       C  0.90807227  0.26688089  0.01983513     0.20400
C1100       C  0.94145759  0.23187821  0.01707959    -0.03200
C1101       C  0.98512177  0.24387223  0.01071180    -0.06300
C1102       C  0.99571246  0.29097678  0.00738770     0.20600
C1103       C  0.01719419  0.20851000  0.00698002     0.18800
C1104       C  0.00658538  0.16186606  0.01039974    -0.17800
C1105       C  0.96361797  0.15007140  0.01688936    -0.20000
C1106       C  0.93034429  0.18462277  0.01993357     0.20300
C1107       C  0.88527895  0.17255382  0.02487984    -0.33000
C1108       C  0.85089916  0.20699457  0.02648901     0.01000
C1109       C  0.86305257  0.25418687  0.02452280    -0.24300
C1110       C  0.03784391  0.30218368  0.99998486    -0.28900
C1111       C  0.06852999  0.26667665  0.99549776     0.06700
C1112       C  0.05841170  0.22013488  0.99928863    -0.27600
H1113       H  0.97045071  0.36196128  0.00849048     0.11400
H1114       H  0.89428520  0.34104368  0.01916818     0.12500
H1115       H  0.03106682  0.13437832  0.00770635     0.11600
H1116       H  0.95580765  0.11369115  0.01904644     0.10800
H1117       H  0.87595047  0.13617442  0.02630085     0.16200
H1118       H  0.83675461  0.28087822  0.02599077     0.12100
H1119       H  0.04546787  0.33801905  0.99693597     0.15000
H1120       H  0.08214539  0.19282536  0.99584053     0.14800
C1121       C  0.77895690  0.00128833  0.97162590    -0.18100
C1122       C  0.79324950  0.95840312  0.96557594    -0.20300
C1123       C  0.78853112  0.91719395  0.97407855     0.20400
C1124       C  0.76725456  0.91921172  0.98857808    -0.03200
C1125       C  0.75276310  0.96234173  0.99465289    -0.06300
C1126       C  0.75955852  0.00376282  0.98628206     0.20600
C1127       C  0.73306889  0.96411988  0.00935263     0.18800
C1128       C  0.72624484  0.92282657  0.01761018    -0.17800
C1129       C  0.74062968  0.88023849  0.01162011    -0.20000
C1130       C  0.76202788  0.87834432  0.99729928     0.20300
C1131       C  0.77997580  0.83648839  0.99186810    -0.33000
C1132       C  0.80357379  0.83429438  0.97785250     0.01000
C1133       C  0.80626517  0.87440904  0.96868376    -0.24300
C1134       C  0.74836196  0.04691651  0.99294276    -0.28900
C1135       C  0.73077089  0.04898653  0.00790479     0.06700
C1136       C  0.72202360  0.00722038  0.01580972    -0.27600
H1137       H  0.78407165  0.03268242  0.96497164     0.11400
H1138       H  0.80909125  0.95765921  0.95439458     0.12500
H1139       H  0.71083433  0.92360994  0.02885332     0.11600
H1140       H  0.73606292  0.84887976  0.01836109     0.10800
H1141       H  0.77664591  0.80547420  0.99887181     0.16200
H1142       H  0.82392816  0.87281616  0.95780327     0.12100
H1143       H  0.75490448  0.07884534  0.98669673     0.15000
H1144       H  0.70791712  0.00821206  0.02724142     0.14800
C1145       C  0.82486627  0.42925622  0.99408679    -0.18100
C1146       C  0.81089357  0.38635686  0.00000368    -0.20300
C1147       C  0.77322200  0.38377963  0.01012062     0.20400
C1148       C  0.75069376  0.42476933  0.01495489    -0.03200
C1149       C  0.76489528  0.46815327  0.00899548    -0.06300
C1150       C  0.80141737  0.47012071  0.99823281     0.20600
C1151       C  0.74133104  0.50920450  0.01328202     0.18800
C1152       C  0.70465753  0.50656447  0.02383900    -0.17800
C1153       C  0.69041126  0.46340066  0.02971497    -0.20000
C1154       C  0.71266757  0.42216118  0.02516543     0.20300
C1155       C  0.69641594  0.37824194  0.03002311    -0.33000
C1156       C  0.71726552  0.33750013  0.02440484     0.01000
C1157       C  0.75627092  0.34064276  0.01484402    -0.24300
C1158       C  0.81265635  0.51258283  0.99133056    -0.28900
C1159       C  0.78830047  0.55327145  0.99512237     0.06700
C1160       C  0.75367486  0.55176531  0.00645524    -0.27600
H1161       H  0.85322623  0.43032019  0.98595088     0.11400
H1162       H  0.82867501  0.35504042  0.99633124     0.12500
H1163       H  0.68625092  0.53776713  0.02727264     0.11600
H1164       H  0.66128101  0.46218460  0.03754573     0.10800
H1165       H  0.66610478  0.37569838  0.03733765     0.16200
H1166       H  0.77225830  0.30913911  0.01050975     0.12100
H1167       H  0.83966606  0.51382797  0.98270527     0.15000
H1168       H  0.73473349  0.58319263  0.00935517     0.14800
C1169       C  0.67075475  0.70778148  0.87586702    -0.18100
C1170       C  0.68272338  0.70802084  0.89129869    -0.20300
C1171       C  0.72936811  0.71331750  0.89580992     0.20400
C1172       C  0.76419818  0.71967867  0.88465473    -0.03200
C1173       C  0.75219228  0.71875759  0.86904027    -0.06300
C1174       C  0.70527988  0.71246672  0.86466182     0.20600
C1175       C  0.78724699  0.72275333  0.85783484     0.18800
C1176       C  0.83370953  0.72966323  0.86238225    -0.17800
C1177       C  0.84552014  0.73122366  0.87785534    -0.20000
C1178       C  0.81115278  0.72540372  0.88907830     0.20300
C1179       C  0.82313352  0.72330474  0.90458974    -0.33000
C1180       C  0.78890754  0.71433525  0.91572565     0.01000
C1181       C  0.74194014  0.71060593  0.91123173    -0.24300
C1182       C  0.69374090  0.70975642  0.84917333    -0.28900
C1183       C  0.72853767  0.71190236  0.83791521     0.06700
C1184       C  0.77527893  0.71874119  0.84233634    -0.27600
H1185       H  0.63456605  0.70299063  0.87268787     0.11400
H1186       H  0.65551892  0.70329812  0.89971115     0.12500
H1187       H  0.86106659  0.73320785  0.85396457     0.11600
H1188       H  0.88173088  0.73585827  0.88104017     0.10800
H1189       H  0.85943491  0.72624673  0.90790118     0.16200
H1190       H  0.71525054  0.70411615  0.91970488     0.12100
H1191       H  0.65772166  0.70414468  0.84589638     0.15000
H1192       H  0.80227205  0.72068507  0.83373198     0.14800
C1193       C  0.34134583  0.26357364  0.87138110    -0.18100
C1194       C  0.32962394  0.26302037  0.88686778    -0.20300
C1195       C  0.28329754  0.26982816  0.89153056     0.20400
C1196       C  0.24828399  0.27615996  0.88040495    -0.03200
C1197       C  0.26023237  0.27734646  0.86475703    -0.06300
C1198       C  0.30703750  0.27131212  0.86022639     0.20600
C1199       C  0.22549305  0.28571899  0.85369346     0.18800
C1200       C  0.17899558  0.29139147  0.85832211    -0.17800
C1201       C  0.16708833  0.28959160  0.87376619    -0.20000
C1202       C  0.20151233  0.28252857  0.88491721     0.20300
C1203       C  0.19014698  0.28316420  0.90049115    -0.33000
C1204       C  0.22509391  0.27900497  0.91170695     0.01000
C1205       C  0.27156783  0.27170783  0.90709136    -0.24300
C1206       C  0.31888569  0.27431736  0.84468794    -0.28900
C1207       C  0.28468456  0.28425404  0.83358571     0.06700
C1208       C  0.23793480  0.28933769  0.83824734    -0.27600
H1209       H  0.37745379  0.25876312  0.86814291     0.11400
H1210       H  0.35697193  0.25783330  0.89522250     0.12500
H1211       H  0.15181564  0.29771459  0.84999193     0.11600
H1212       H  0.13100655  0.29457318  0.87700757     0.10800
H1213       H  0.15431907  0.28910254  0.90388618     0.16200
H1214       H  0.29870574  0.26819889  0.91561897     0.12100
H1215       H  0.35502646  0.27061814  0.84131157     0.15000
H1216       H  0.21120675  0.29685005  0.82985867     0.14800
C1217       C  0.58783148  0.45899340  0.80376378    -0.18100
C1218       C  0.55503128  0.42276514  0.80306821    -0.20300
C1219       C  0.50701171  0.43232893  0.80375860     0.20400
C1220       C  0.49205734  0.47889663  0.80540891    -0.03200
C1221       C  0.52516797  0.51554320  0.80592617    -0.06300
C1222       C  0.57329666  0.50557823  0.80505060     0.20600
C1223       C  0.50998726  0.56222285  0.80690973     0.18800
C1224       C  0.46207681  0.57177636  0.80780780    -0.17800
C1225       C  0.42940216  0.53554379  0.80749141    -0.20000
C1226       C  0.44395880  0.48904176  0.80613533     0.20300
C1227       C  0.41114353  0.45277915  0.80503328    -0.33000
C1228       C  0.42547885  0.40632537  0.80284610     0.01000
C1229       C  0.47369386  0.39640750  0.80241188    -0.24300
C1230       C  0.60585058  0.54241143  0.80501896    -0.28900
C1231       C  0.59085402  0.58919939  0.80546961     0.06700
C1232       C  0.54280026  0.59861505  0.80657340    -0.27600
H1233       H  0.62460282  0.45061072  0.80303401     0.11400
H1234       H  0.56724169  0.38725293  0.80181224     0.12500
H1235       H  0.44980063  0.60739576  0.80859271     0.11600
H1236       H  0.39262560  0.54398744  0.80804160     0.10800
H1237       H  0.37428067  0.46107941  0.80524438     0.16200
H1238       H  0.48532392  0.36086170  0.80070533     0.12100
H1239       H  0.64271260  0.53471954  0.80394049     0.15000
H1240       H  0.53083510  0.63443495  0.80689854     0.14800
C1241       C  0.17884341  0.83008725  0.61007218    -0.18100
C1242       C  0.17683270  0.83950604  0.62568823    -0.20300
C1243       C  0.19889517  0.80991327  0.63621020     0.20400
C1244       C  0.22403280  0.77092710  0.63091987    -0.03200
C1245       C  0.22561453  0.76113119  0.61514649    -0.06300
C1246       C  0.20266017  0.79069948  0.60468536     0.20600
C1247       C  0.24913689  0.72112221  0.60990019     0.18800
C1248       C  0.27191342  0.69200726  0.62040623    -0.17800
C1249       C  0.27074283  0.70193799  0.63600030    -0.20000
C1250       C  0.24652251  0.74101092  0.64141370     0.20300
C1251       C  0.24324008  0.74996707  0.65712880    -0.33000
C1252       C  0.21698087  0.78786713  0.66243189     0.01000
C1253       C  0.19523702  0.81787272  0.65193507    -0.24300
C1254       C  0.20277370  0.77966092  0.58909171    -0.28900
C1255       C  0.22476416  0.73888808  0.58380057     0.06700
C1256       C  0.24847114  0.71022721  0.59430839    -0.27600
H1257       H  0.16105473  0.85320750  0.60222049     0.11400
H1258       H  0.15752757  0.86968527  0.62955261     0.12500
H1259       H  0.29022259  0.66118811  0.61657534     0.11600
H1260       H  0.28818317  0.67857779  0.64385983     0.10800
H1261       H  0.25948552  0.72653541  0.66524759     0.16200
H1262       H  0.17472025  0.84694249  0.65607101     0.12100
H1263       H  0.18418742  0.80191112  0.58115993     0.15000
H1264       H  0.26562433  0.67881748  0.59040038     0.14800
C1265       C  0.92101803  0.81709050  0.76918017    -0.18100
C1266       C  0.96479429  0.82824069  0.76317276    -0.20300
C1267       C  0.99573323  0.79286912  0.75880791     0.20400
C1268       C  0.98310086  0.74571817  0.76111218    -0.03200
C1269       C  0.93919240  0.73447277  0.76737755    -0.06300
C1270       C  0.90759507  0.77036627  0.77103082     0.20600
C1271       C  0.92605106  0.68732625  0.76927484     0.18800
C1272       C  0.95753974  0.65194037  0.76534443    -0.17800
C1273       C  0.00077273  0.66306883  0.75893513    -0.20000
C1274       C  0.01340892  0.70975758  0.75649957     0.20300
C1275       C  0.05490250  0.72109611  0.74896145    -0.33000
C1276       C  0.06695904  0.76784772  0.74622368     0.01000
C1277       C  0.03810548  0.80367040  0.75157943    -0.24300
C1278       C  0.86231926  0.75890458  0.77570403    -0.28900
C1279       C  0.84822428  0.71206259  0.77684668     0.06700
C1280       C  0.88080133  0.67641260  0.77425814    -0.27600
H1281       H  0.89718157  0.84502326  0.77202443     0.11400
H1282       H  0.97390447  0.86456100  0.76152544     0.12500
H1283       H  0.94813045  0.61562964  0.76676710     0.11600
H1284       H  0.02389814  0.63509445  0.75555360     0.10800
H1285       H  0.07743302  0.69350346  0.74485284     0.16200
H1286       H  0.04732157  0.83968539  0.74932450     0.12100
H1287       H  0.83733726  0.78648600  0.77785800     0.15000
H1288       H  0.86996990  0.64029260  0.77506960     0.14800
C1289       C  0.46314711  0.67253682  0.73806140    -0.18100
C1290       C  0.41954120  0.68426556  0.73191644    -0.20300
C1291       C  0.40621690  0.73117219  0.73034428     0.20400
C1292       C  0.43751793  0.76661874  0.73469274    -0.03200
C1293       C  0.48121105  0.75475312  0.74114692    -0.06300
C1294       C  0.49408041  0.70743358  0.74291731     0.20600
C1295       C  0.51126494  0.79023094  0.74632090     0.18800
C1296       C  0.49840045  0.83711450  0.74446910    -0.17800
C1297       C  0.45552036  0.84884839  0.73786768    -0.20000
C1298       C  0.42446030  0.81393959  0.73314877     0.20300
C1299       C  0.37978393  0.82547022  0.72762540    -0.33000
C1300       C  0.34749256  0.79027643  0.72411210     0.01000
C1301       C  0.36144374  0.74323855  0.72513909    -0.24300
C1302       C  0.53681666  0.69601196  0.74998718    -0.28900
C1303       C  0.56584290  0.73135680  0.75571549     0.06700
C1304       C  0.55298838  0.77826805  0.75369414    -0.27600
H1305       H  0.47223911  0.63607142  0.73933644     0.11400
H1306       H  0.39588198  0.65660012  0.72862642     0.12500
H1307       H  0.52124935  0.86475054  0.74833758     0.11600
H1308       H  0.44615502  0.88528957  0.73680236     0.10800
H1309       H  0.36902844  0.86165781  0.72708467     0.16200
H1310       H  0.33673572  0.71593995  0.72237164     0.12100
H1311       H  0.54633772  0.65980951  0.75172863     0.15000
H1312       H  0.57527259  0.80552636  0.75814373     0.14800
C1313       C  0.30673783  0.60588818  0.74778594    -0.18100
C1314       C  0.31958523  0.56321252  0.75413896    -0.20300
C1315       C  0.29719211  0.52211190  0.74959653     0.20400
C1316       C  0.26275238  0.52364906  0.73809396    -0.03200
C1317       C  0.24962420  0.56686654  0.73169612    -0.06300
C1318       C  0.27118999  0.60805747  0.73683683     0.20600
C1319       C  0.21354979  0.56912533  0.72071429     0.18800
C1320       C  0.19232047  0.52762122  0.71584301    -0.17800
C1321       C  0.20558246  0.48462285  0.72213053    -0.20000
C1322       C  0.24018736  0.48235434  0.73345735     0.20300
C1323       C  0.25141401  0.43995788  0.74066399    -0.33000
C1324       C  0.28408458  0.43881285  0.75266547     0.01000
C1325       C  0.30749433  0.47984305  0.75678842    -0.24300
C1326       C  0.25522606  0.65104520  0.73159386    -0.28900
C1327       C  0.21780253  0.65398325  0.72132375     0.06700
C1328       C  0.19798711  0.61296674  0.71544422    -0.27600
H1329       H  0.32371538  0.63736203  0.75173898     0.11400
H1330       H  0.34628951  0.56250058  0.76287895     0.12500
H1331       H  0.16470492  0.52849891  0.70741838     0.11600
H1332       H  0.18796460  0.45325743  0.71839652     0.10800
H1333       H  0.23315840  0.40838501  0.73745174     0.16200
H1334       H  0.33301997  0.47908818  0.76590840     0.12100
H1335       H  0.27032786  0.68266232  0.73619040     0.15000
H1336       H  0.16875567  0.61522850  0.70764267     0.14800
C1337       C  0.30457100  0.02931459  0.78189172    -0.18100
C1338       C  0.29028509  0.98619985  0.77598819    -0.20300
C1339       C  0.26030342  0.98405784  0.76334391     0.20400
C1340       C  0.24319870  0.02584891  0.75695489    -0.03200
C1341       C  0.25768447  0.06929873  0.76288600    -0.06300
C1342       C  0.28923089  0.07117165  0.77526308     0.20600
C1343       C  0.24216173  0.11084358  0.75597469     0.18800
C1344       C  0.21064728  0.10892710  0.74376435    -0.17800
C1345       C  0.19623382  0.06601881  0.73793310    -0.20000
C1346       C  0.21320408  0.02434581  0.74421123     0.20300
C1347       C  0.20232759  0.98139499  0.73751975    -0.33000
C1348       C  0.22113791  0.93965434  0.74329728     0.01000
C1349       C  0.24879680  0.94110346  0.75655691    -0.24300
C1350       C  0.30630336  0.11469719  0.78030417    -0.28900
C1351       C  0.29297319  0.15588434  0.77277365     0.06700
C1352       C  0.26000791  0.15354114  0.76091476    -0.27600
H1353       H  0.32859302  0.02988634  0.79141731     0.11400
H1354       H  0.30361954  0.95450035  0.78109175     0.12500
H1355       H  0.19806576  0.14067714  0.73845725     0.11600
H1356       H  0.17286931  0.06544423  0.72823966     0.10800
H1357       H  0.18052812  0.98063157  0.72743274     0.16200
H1358       H  0.26342095  0.90914414  0.76109441     0.12100
H1359       H  0.33176632  0.11629394  0.78941464     0.15000
H1360       H  0.24934014  0.18521825  0.75511758     0.14800
C1361       C  0.78964740  0.34520135  0.62411694    -0.18100
C1362       C  0.78995533  0.33373558  0.63962816    -0.20300
C1363       C  0.79566901  0.28731272  0.64435048     0.20400
C1364       C  0.80022327  0.25201771  0.63326002    -0.03200
C1365       C  0.80057563  0.26367459  0.61760109    -0.06300
C1366       C  0.79550522  0.31051096  0.61302111     0.20600
C1367       C  0.80702764  0.22855186  0.60656315     0.18800
C1368       C  0.81164601  0.18201407  0.61125431    -0.17800
C1369       C  0.81061506  0.17039522  0.62672352    -0.20000
C1370       C  0.80535396  0.20515846  0.63780763     0.20300
C1371       C  0.80600242  0.19387972  0.65335327    -0.33000
C1372       C  0.80286589  0.22886404  0.66452555     0.01000
C1373       C  0.79761359  0.27558967  0.65992327    -0.24300
C1374       C  0.79764020  0.32199517  0.59747205    -0.28900
C1375       C  0.80585212  0.28741027  0.58639965     0.06700
C1376       C  0.80986802  0.24065119  0.59107521    -0.27600
H1377       H  0.78560861  0.38135527  0.62080574     0.11400
H1378       H  0.78610502  0.36129291  0.64794368     0.12500
H1379       H  0.81648143  0.15457304  0.60295323     0.11600
H1380       H  0.81460710  0.13423378  0.63003170     0.10800
H1381       H  0.81050619  0.15784323  0.65677313     0.16200
H1382       H  0.79499943  0.30271604  0.66844752     0.12100
H1383       H  0.79469990  0.35818611  0.59405609     0.15000
H1384       H  0.81600655  0.21372175  0.58268060     0.14800
C1385       C  0.92156945  0.95536872  0.70106296    -0.18100
C1386       C  0.95512497  0.92007422  0.70102365    -0.20300
C1387       C  0.00202952  0.93048689  0.69803352     0.20400
C1388       C  0.01520915  0.97688800  0.69487203    -0.03200
C1389       C  0.98122464  0.01270480  0.69498381    -0.06300
C1390       C  0.93431969  0.00176889  0.69817063     0.20600
C1391       C  0.99429415  0.05944169  0.69224474     0.18800
C1392       C  0.04128101  0.06963209  0.68913179    -0.17800
C1393       C  0.07494498  0.03410529  0.68896241    -0.20000
C1394       C  0.06238674  0.98761428  0.69193420     0.20300
C1395       C  0.09618555  0.95188548  0.69239381    -0.33000
C1396       C  0.08338712  0.90560431  0.69591463     0.01000
C1397       C  0.03600480  0.89537216  0.69850913    -0.24300
C1398       C  0.90101528  0.03742327  0.69881762    -0.28900
C1399       C  0.91355949  0.08447540  0.69657561     0.06700
C1400       C  0.96038955  0.09510579  0.69305144    -0.27600
H1401       H  0.88566523  0.94643267  0.70355900     0.11400
H1402       H  0.94442910  0.88463127  0.70348962     0.12500
H1403       H  0.05212799  0.10520664  0.68698629     0.11600
H1404       H  0.11096243  0.04311473  0.68668836     0.10800
H1405       H  0.13254817  0.96039143  0.69050704     0.16200
H1406       H  0.02551562  0.86003906  0.70125502     0.12100
H1407       H  0.86527204  0.02840917  0.70154200     0.15000
H1408       H  0.97069907  0.13107900  0.69136531     0.14800
C1409       C  0.65020409  0.94203440  0.75377333    -0.18100
C1410       C  0.66438393  0.98327049  0.74670673    -0.20300
C1411       C  0.70769765  0.00326120  0.75024742     0.20400
C1412       C  0.73619770  0.98280543  0.76150842    -0.03200
C1413       C  0.72182443  0.94106310  0.76868606    -0.06300
C1414       C  0.67911622  0.92020182  0.76451387     0.20600
C1415       C  0.75118347  0.91897955  0.77942185     0.18800
C1416       C  0.79371441  0.94017802  0.78335008    -0.17800
C1417       C  0.80776656  0.98185864  0.77632298    -0.20000
C1418       C  0.77975412  0.00301394  0.76514659     0.20300
C1419       C  0.79499657  0.04302789  0.75719743    -0.33000
C1420       C  0.76751068  0.06215129  0.74545174     0.01000
C1421       C  0.72351791  0.04251270  0.74234980    -0.24300
C1422       C  0.66726648  0.87648970  0.77043096    -0.28900
C1423       C  0.69747160  0.85291794  0.78038543     0.06700
C1424       C  0.73866892  0.87490272  0.78530640    -0.27600
H1425       H  0.61723948  0.92649346  0.75051627     0.11400
H1426       H  0.64196285  0.99888409  0.73816012     0.12500
H1427       H  0.81667359  0.92391602  0.79158635     0.11600
H1428       H  0.84117630  0.99689384  0.77935239     0.10800
H1429       H  0.82867790  0.05825815  0.75977973     0.16200
H1430       H  0.70147608  0.05760477  0.73359024     0.12100
H1431       H  0.63582002  0.85929136  0.76652522     0.15000
H1432       H  0.76246058  0.85630899  0.79274133     0.14800
C1433       C  0.81994955  0.51199446  0.73191509    -0.18100
C1434       C  0.83352575  0.46779368  0.72666303    -0.20300
C1435       C  0.80691943  0.42802134  0.73013840     0.20400
C1436       C  0.76573615  0.43339004  0.73880764    -0.03200
C1437       C  0.75225067  0.47776694  0.74419731    -0.06300
C1438       C  0.77959193  0.51733167  0.74082714     0.20600
C1439       C  0.71201737  0.48221308  0.75334895     0.18800
C1440       C  0.68491767  0.44288083  0.75667388    -0.17800
C1441       C  0.69789269  0.39925187  0.75119735    -0.20000
C1442       C  0.73839669  0.39421436  0.74242184     0.20300
C1443       C  0.75232406  0.35026437  0.73754612    -0.33000
C1444       C  0.79401156  0.34358501  0.72932216     0.01000
C1445       C  0.82101632  0.38295528  0.72544387    -0.24300
C1446       C  0.76692045  0.56101024  0.74691317    -0.28900
C1447       C  0.72796740  0.56492515  0.75660859     0.06700
C1448       C  0.70035822  0.52554647  0.75949365    -0.27600
H1449       H  0.84146603  0.54190340  0.72921694     0.11400
H1450       H  0.86515718  0.46467928  0.72001468     0.12500
H1451       H  0.65396844  0.44577053  0.76368098     0.11600
H1452       H  0.67662509  0.36924802  0.75404407     0.10800
H1453       H  0.73066387  0.32079507  0.74060083     0.16200
H1454       H  0.85311665  0.37849673  0.71912492     0.12100
H1455       H  0.78872991  0.59121259  0.74485051     0.15000
H1456       H  0.67039797  0.52842893  0.76696751     0.14800
C1457       C  0.05670023  0.16814721  0.75588255    -0.18100
C1458       C  0.10051851  0.18053174  0.76148615    -0.20300
C1459       C  0.10918791  0.22628781  0.76631484     0.20400
C1460       C  0.07305117  0.25950582  0.76616882    -0.03200
C1461       C  0.02850095  0.24675153  0.76076485    -0.06300
C1462       C  0.02076923  0.20116439  0.75521915     0.20600
C1463       C  0.99238912  0.28008786  0.76024953     0.18800
C1464       C  0.00094815  0.32556900  0.76545304    -0.17800
C1465       C  0.04541784  0.33839980  0.77060897    -0.20000
C1466       C  0.08196603  0.30585135  0.77078972     0.20300
C1467       C  0.12768606  0.31916508  0.77479015    -0.33000
C1468       C  0.16418135  0.28650371  0.77413804     0.01000
C1469       C  0.15404084  0.23981356  0.77056039    -0.24300
C1470       C  0.97795657  0.18998370  0.74848415    -0.28900
C1471       C  0.94247822  0.22333511  0.74756963     0.06700
C1472       C  0.94914088  0.26784166  0.75387606    -0.27600
H1473       H  0.05120240  0.13299593  0.75176155     0.11400
H1474       H  0.12807543  0.15469693  0.76159015     0.12500
H1475       H  0.97359718  0.35157899  0.76513785     0.11600
H1476       H  0.05145334  0.37403373  0.77415053     0.10800
H1477       H  0.13523178  0.35515263  0.77758171     0.16200
H1478       H  0.18173783  0.21415530  0.77036874     0.12100
H1479       H  0.97259896  0.15580053  0.74352492     0.15000
H1480       H  0.92172463  0.29369768  0.75292205     0.14800
C1481       C  0.49889811  0.25041126  0.71508997    -0.18100
C1482       C  0.54247454  0.23668575  0.70933355    -0.20300
C1483       C  0.58275344  0.23956997  0.71841730     0.20400
C1484       C  0.57908154  0.25868924  0.73319939    -0.03200
C1485       C  0.53530027  0.27213753  0.73902824    -0.06300
C1486       C  0.49473429  0.26707571  0.73006556     0.20600
C1487       C  0.53191856  0.28831579  0.75416026     0.18800
C1488       C  0.57215015  0.29345812  0.76303581    -0.17800
C1489       C  0.61538836  0.28065276  0.75722816    -0.20000
C1490       C  0.61885177  0.26223831  0.74251616     0.20300
C1491       C  0.66119041  0.24497369  0.73737579    -0.33000
C1492       C  0.66498267  0.22268982  0.72319439     0.01000
C1493       C  0.62608829  0.22168741  0.71340159    -0.24300
C1494       C  0.45078382  0.27632764  0.73658605    -0.28900
C1495       C  0.44760363  0.28925927  0.75199676     0.06700
C1496       C  0.48819812  0.29664670  0.76049636    -0.27600
H1497       H  0.46822840  0.24656453  0.70799034     0.11400
H1498       H  0.54442895  0.22258093  0.69792926     0.12500
H1499       H  0.57000487  0.30611550  0.77462370     0.11600
H1500       H  0.64592655  0.28365967  0.76443676     0.10800
H1501       H  0.69109985  0.24680559  0.74491176     0.16200
H1502       H  0.62883649  0.20494007  0.70240214     0.12100
H1503       H  0.41921048  0.27036910  0.73007614     0.15000
H1504       H  0.48551131  0.30686315  0.77234589     0.14800
loop_ 
_geom_bond_atom_site_label_1 
_geom_bond_atom_site_label_2 
_geom_bond_distance 
_geom_bond_site_symmetry_2 
_ccdc_geom_bond_type 
O1          Cr19   1.966       .  S
O1            C9   1.267       .  A
O2          Cr19   2.011       .  S
O2            C3   1.268       .  A
C3            O4   1.264       .  A
C3         C1420   1.485       .  S
O4          Cr20   1.994       .  S
O5          Cr20   1.997       .  S
O5            C6   1.257       .  A
C6            O7   1.254       .  A
C6         C1471   1.466       .  S
O7          Cr21   1.974       .  S
O8          Cr21   2.042       .  S
O8            C9   1.280       .  A
C9         C1399   1.495       .  S
O10         Cr19   1.999       .  S
O10          C18   1.258       .  A
O11         Cr19   2.017       .  S
O11          C12   1.268       .  A
C12          O13   1.262       .  A
C12        C1492   1.481       .  S
O13         Cr20   1.984       .  S
O14         Cr20   1.942       .  S
O14          C15   1.258       .  A
C15          O16   1.276       .  A
C15        C1444   1.494       .  S
O16         Cr21   2.050       .  S
O17         Cr21   1.994       .  S
O17          C18   1.257       .  A
C18        C1372   1.487       .  S
Cr19         O22   1.775       .  S
Cr20         O22   1.771       .  S
Cr21         O22   1.774       .  S
O23         Cr41   2.031       .  S
O23          C31   1.276       .  A
O24         Cr41   1.973       .  S
O24          C25   1.256       .  A
C25          O26   1.263       .  A
C25        C1348   1.486       .  S
O26         Cr42   2.012       .  S
O27         Cr42   1.993       .  S
O27          C28   1.261       .  A
C28          O29   1.263       .  A
C28        C1276   1.471       .  S
O29         Cr43   2.005       .  S
O30         Cr43   1.973       .  S
O30          C31   1.267       .  A
C31        C1396   1.492       .  S
O32         Cr41   1.994       .  S
O32          C40   1.258       .  A
O33         Cr41   2.039       .  S
O33          C34   1.274       .  A
C34          O35   1.257       .  A
C34        C1300   1.484       .  S
O35         Cr42   1.962       .  S
O36         Cr42   1.995       .  S
O36          C37   1.267       .  A
C37          O38   1.268       .  A
C37        C1327   1.473       .  S
O38         Cr43   2.000       .  S
O39         Cr43   2.004       .  S
O39          C40   1.259       .  A
C40        C1252   1.476       .  S
Cr41         O44   1.772       .  S
Cr42         O44   1.770       .  S
Cr43         O44   1.777       .  S
O45         Cr63   2.021       .  S
O45          C53   1.273       .  A
O46         Cr63   1.977       .  S
O46          C47   1.256       .  A
C47          O48   1.259       .  A
C47        C1324   1.479       .  S
O48         Cr64   2.005       .  S
O49         Cr64   1.978       .  S
O49          C50   1.262       .  A
C50          O51   1.271       .  A
C50        C1495   1.468       .  S
O51         Cr65   2.010       .  S
O52         Cr65   1.984       .  S
O52          C53   1.265       .  A
C53        C1228   1.494       .  S
O54         Cr63   1.985       .  S
O54          C62   1.259       .  A
O55         Cr63   2.035       .  S
O55          C56   1.273       .  A
C56          O57   1.258       .  A
C56        C1468   1.479       .  S
O57         Cr64   1.948       .  S
O58         Cr64   1.986       .  S
O58          C59   1.260       .  A
C59          O60   1.266       .  A
C59        C1351   1.482       .  S
O60         Cr65   2.016       .  S
O61         Cr65   2.018       .  S
O61          C62   1.265       .  A
C62        C1207   1.495       .  S
Cr63         O66   1.769       .  S
Cr64         O66   1.777       .  S
Cr65         O66   1.775       .  S
O67         Cr85   2.020       .  S
O67          C75   1.272       .  A
O68         Cr85   1.968       .  S
O68          C69   1.256       .  A
C69          O70   1.264       .  A
C69        C1447   1.479       .  S
O70         Cr86   2.023       .  S
O71         Cr86   2.002       .  S
O71          C72   1.266       .  A
C72          O73   1.266       .  A
C72        C1303   1.480       .  S
O73         Cr87   2.009       .  S
O74         Cr87   1.981       .  S
O74          C75   1.265       .  A
C75        C1231   1.490       .  S
O76         Cr85   1.989       .  S
O76          C84   1.258       .  A
O77         Cr85   2.022       .  S
O77          C78   1.270       .  A
C78          O79   1.260       .  A
C78        C1279   1.476       .  S
O79         Cr86   1.966       .  S
O80         Cr86   2.003       .  S
O80          C81   1.266       .  A
C81          O82   1.267       .  A
C81        C1423   1.474       .  S
O82         Cr87   2.005       .  S
O83         Cr87   2.008       .  S
O83          C84   1.263       .  A
C84        C1183   1.486       .  S
Cr85         O88   1.771       .  S
Cr86         O88   1.770       .  S
Cr87         O88   1.770       .  S
O89        Cr107   2.026       .  S
O89          C97   1.276       .  A
O90        Cr107   1.972       .  S
O90          C91   1.258       .  A
C91          O92   1.263       .  A
C91        C1135   1.485       .  S
O92        Cr108   2.005       .  S
O93        Cr108   1.999       .  S
O93          C94   1.261       .  A
C94          O95   1.260       .  A
C94        C1084   1.469   1_554  S
O95        Cr109   1.994       .  S
O96        Cr109   1.970       .  S
O96          C97   1.266       .  A
C97        C1063   1.482       .  S
O98        Cr107   2.001       .  S
O98         C106   1.258       .  A
O99        Cr107   2.024       .  S
O99         C100   1.270       .  A
C100        O101   1.258       .  A
C100       C1108   1.479       .  S
O101       Cr108   1.967       .  S
O102       Cr108   1.996       .  S
O102        C103   1.268       .  A
C103        O104   1.266       .  A
C103       C1156   1.468       .  S
O104       Cr109   1.990       .  S
O105       Cr109   1.988       .  S
O105        C106   1.258       .  A
C106       C1036   1.484       .  S
Cr107       O110   1.773       .  S
Cr108       O110   1.770       .  S
Cr109       O110   1.774       .  S
O111       Cr129   1.964       .  S
O111        C119   1.265       .  A
O112       Cr129   1.987       .  S
O112        C113   1.265       .  A
C113        O114   1.265       .  A
C113       C1012   1.483       .  S
O114       Cr130   2.001       .  S
O115       Cr130   1.999       .  S
O115        C116   1.257       .  A
C116        O117   1.254       .  A
C116        C967   1.471       .  S
O117       Cr131   1.970       .  S
O118       Cr131   2.030       .  S
O118        C119   1.276       .  A
C119       C1060   1.486       .  S
O120       Cr129   1.993       .  S
O120        C128   1.257       .  A
O121       Cr129   2.005       .  S
O121        C122   1.268       .  A
C122        O123   1.261       .  A
C122        C940   1.469       .  S
O123       Cr130   1.981       .  S
O124       Cr130   1.962       .  S
O124        C125   1.260       .  A
C125        O126   1.276       .  A
C125        C991   1.494       .  S
O126       Cr131   2.043       .  S
O127       Cr131   1.993       .  S
O127        C128   1.258       .  A
C128        C916   1.490       .  S
Cr129       O132   1.775       .  S
Cr130       O132   1.779       .  S
Cr131       O132   1.772       .  S
O133       Cr151   2.023       .  S
O133        C141   1.274       .  A
O134       Cr151   1.976       .  S
O134        C135   1.255       .  A
C135        O136   1.257       .  A
C135       C1159   1.473       .  S
O136       Cr152   1.998       .  S
O137       Cr152   1.973       .  S
O137        C138   1.262       .  A
C138        O139   1.269       .  A
C138        C943   1.459       .  S
O139       Cr153   2.006       .  S
O140       Cr153   1.969       .  S
O140        C141   1.264       .  A
C141        C895   1.487       .  S
O142       Cr151   1.983       .  S
O142        C150   1.258       .  A
O143       Cr151   2.037       .  S
O143        C144   1.275       .  A
C144        O145   1.258       .  A
C144        C964   1.483       .  S
O145       Cr152   1.942       .  S
O146       Cr152   1.980       .  S
O146        C147   1.259       .  A
C147        O148   1.266       .  A
C147       C1132   1.479       .  S
O148       Cr153   2.015       .  S
O149       Cr153   2.002       .  S
O149        C150   1.260       .  A
C150       C1180   1.487       .  S
Cr151       O154   1.768       .  S
Cr152       O154   1.772       .  S
Cr153       O154   1.775       .  S
O155       Cr173   2.027       .  S
O155        C163   1.275       .  A
O156       Cr173   1.978       .  S
O156        C157   1.256       .  A
C157        O158   1.264       .  A
C157        C988   1.481       .  S
O158       Cr174   2.022       .  S
O159       Cr174   1.996       .  S
O159        C160   1.264       .  A
C160        O161   1.267       .  A
C160       C1111   1.477       .  S
O161       Cr175   2.016       .  S
O162       Cr175   1.962       .  S
O162        C163   1.262       .  A
C163        C892   1.483       .  S
O164       Cr173   1.992       .  S
O164        C172   1.258       .  A
O165       Cr173   2.031       .  S
O165        C166   1.273       .  A
C166        O167   1.257       .  A
C166       C1087   1.480       .  S
O167       Cr174   1.959       .  S
O168       Cr174   1.997       .  S
O168        C169   1.267       .  A
C169        O170   1.264       .  A
C169       C1015   1.465       .  S
O170       Cr175   1.993       .  S
O171       Cr175   2.016       .  S
O171        C172   1.263       .  A
C172       C1204   1.492       .  S
Cr173       O176   1.768       .  S
Cr174       O176   1.769       .  S
Cr175       O176   1.774       .  S
O177       Cr195   1.970       .  S
O177        C185   1.264       .  A
O178       Cr195   2.004       .  S
O178        C179   1.269       .  A
C179        O180   1.261       .  A
C179        C868   1.464       .  S
O180       Cr196   1.975       .  S
O181       Cr196   2.011       .  S
O181        C182   1.260       .  A
C182        O183   1.255       .  A
C182        C799   1.479       .  S
O183       Cr197   1.979       .  S
O184       Cr197   2.034       .  S
O184        C185   1.278       .  A
C185        C772   1.492       .  S
O186       Cr195   2.000       .  S
O186        C194   1.260       .  A
O187       Cr195   2.017       .  S
O187        C188   1.266       .  A
C188        O189   1.263       .  A
C188        C823   1.485       .  S
O189       Cr196   1.991       .  S
O190       Cr196   1.930       .  S
O190        C191   1.254       .  A
C191        O192   1.279       .  A
C191        C847   1.489       .  S
O192       Cr197   2.059       .  S
O193       Cr197   1.991       .  S
O193        C194   1.260       .  A
C194       C1375   1.490       .  S
Cr195       O198   1.775       .  S
Cr196       O198   1.770       .  S
Cr197       O198   1.769       .  S
O199       Cr217   2.028       .  S
O199        C207   1.277       .  A
O200       Cr217   1.978       .  S
O200        C201   1.257       .  A
C201        O202   1.257       .  A
C201        C844   1.475       .  S
O202       Cr218   1.992       .  S
O203       Cr218   1.994       .  S
O203        C204   1.264       .  A
C204        O205   1.269       .  A
C204        C727   1.479       .  S
O205       Cr219   2.016       .  S
O206       Cr219   1.975       .  S
O206        C207   1.267       .  A
C207        C703   1.488       .  S
O208       Cr217   1.990       .  S
O208        C216   1.257       .  A
O209       Cr217   2.042       .  S
O209        C210   1.274       .  A
C210        O211   1.259       .  A
C210        C748   1.492       .  S
O211       Cr218   1.950       .  S
O212       Cr218   1.977       .  S
O212        C213   1.260       .  A
C213        O214   1.270       .  A
C213        C871   1.482       .  S
O214       Cr219   2.019       .  S
O215       Cr219   2.011       .  S
O215        C216   1.261       .  A
C216        C679   1.491       .  S
Cr217       O220   1.772       .  S
Cr218       O220   1.771       .  S
Cr219       O220   1.778       .  S
O221       Cr239   2.041       .  S
O221        C229   1.277       .  A
O222       Cr239   1.966       .  S
O222        C223   1.254       .  A
C223        O224   1.263       .  A
C223        C655   1.471       .  S
O224       Cr240   2.018       .  S
O225       Cr240   1.982       .  S
O225        C226   1.262       .  A
C226        O227   1.268       .  A
C226        C820   1.473       .  S
O227       Cr241   2.010       .  S
O228       Cr241   1.966       .  S
O228        C229   1.263       .  A
C229        C700   1.493       .  S
O230       Cr239   1.987       .  S
O230        C238   1.258       .  A
O231       Cr239   2.055       .  S
O231        C232   1.277       .  A
C232        O233   1.256       .  A
C232        C796   1.494       .  S
O233       Cr240   1.944       .  S
O234       Cr240   2.002       .  S
O234        C235   1.265       .  A
C235        O236   1.264       .  A
C235        C631   1.470       .  S
O236       Cr241   1.999       .  S
O237       Cr241   2.005       .  S
O237        C238   1.262       .  A
C238        C607   1.485       .  S
Cr239       O242   1.771       .  S
Cr240       O242   1.772       .  S
Cr241       O242   1.768       .  S
O243       Cr261   1.976       .  S
O243        C251   1.265       .  A
O244       Cr261   2.007       .  S
O244        C245   1.267       .  A
C245        O246   1.264       .  A
C245        C628   1.483       .  S
O246       Cr262   1.999       .  S
O247       Cr262   2.027       .  S
O247        C248   1.265       .  A
C248        O249   1.254       .  A
C248        C751   1.482       .  S
O249       Cr263   1.966       .  S
O250       Cr263   2.027       .  S
O250        C251   1.275       .  A
C251        C775   1.491       .  S
O252       Cr261   2.009       .  S
O252        C260   1.263       .  A
O253       Cr261   1.993       .  S
O253        C254   1.265       .  A
C254        O255   1.268       .  A
C254        C724   1.471       .  S
O255       Cr262   2.014       .  S
O256       Cr262   1.952       .  S
O256        C257   1.258       .  A
C257        O258   1.273       .  A
C257        C652   1.485       .  S
O258       Cr263   2.034       .  S
O259       Cr263   1.984       .  S
O259        C260   1.258       .  A
C260       C1255   1.490       .  S
Cr261       O264   1.772       .  S
Cr262       O264   1.777       .  S
Cr263       O264   1.773       .  S
O265       Cr283   2.021       .  S
O265        C273   1.273       .  A
O266       Cr283   1.975       .  S
O266        C267   1.256       .  A
C267        O268   1.259       .  A
C267        C556   1.476       .  S
O268       Cr284   1.998       .  S
O269       Cr284   1.995       .  S
O269        C270   1.263       .  A
C270        O271   1.266       .  A
C270        C508   1.478       .  S
O271       Cr285   2.009       .  S
O272       Cr285   1.989       .  S
O272        C273   1.268       .  A
C273        C487   1.493       .  S
O274       Cr283   1.991       .  S
O274        C282   1.259       .  A
O275       Cr283   2.034       .  S
O275        C276   1.272       .  A
C276        O277   1.260       .  A
C276        C532   1.491       .  S
O277       Cr284   1.964       .  S
O278       Cr284   1.989       .  S
O278        C279   1.263       .  A
C279        O280   1.270       .  A
C279        C580   1.479       .  S
O280       Cr285   2.013       .  S
O281       Cr285   2.012       .  S
O281        C282   1.263       .  A
C282        C676   1.494       .  S
Cr283       O286   1.776       .  S
Cr284       O286   1.774       .  S
Cr285       O286   1.777       .  S
O287       Cr305   1.956       .  S
O287        C295   1.263       .  A
O288       Cr305   2.010       .  S
O288        C289   1.268       .  A
C289        O290   1.262       .  A
C289        C439   1.474       .  S
O290       Cr306   1.991       .  S
O291       Cr306   2.012       .  S
O291        C292   1.260       .  A
C292        O293   1.255       .  A
C292        C535   1.473       .  S
O293       Cr307   1.974       .  S
O294       Cr307   2.043       .  S
O294        C295   1.277       .  A
C295        C412   1.492       .  S
O296       Cr305   2.007       .  S
O296        C304   1.262       .  A
O297       Cr305   1.996       .  S
O297        C298   1.265       .  A
C298        O299   1.265       .  A
C298        C511   1.467       .  S
O299       Cr306   2.005       .  S
O300       Cr306   1.944       .  S
O300        C301   1.257       .  A
C301        O302   1.277       .  A
C301        C463   1.488       .  S
O302       Cr307   2.047       .  S
O303       Cr307   1.992       .  S
O303        C304   1.258       .  A
C304        C919   1.487       .  S
Cr305       O308   1.768       .  S
Cr306       O308   1.772       .  S
Cr307       O308   1.772       .  S
O309       Cr327   2.035       .  S
O309        C317   1.276       .  A
O310       Cr327   1.969       .  S
O310        C311   1.256       .  A
C311        O312   1.264       .  A
C311        C460   1.475       .  S
O312       Cr328   2.020       .  S
O313       Cr328   1.989       .  S
O313        C314   1.262       .  A
C314        O315   1.265       .  A
C314        C364   1.468       .  S
O315       Cr329   2.006       .  S
O316       Cr329   1.980       .  S
O316        C317   1.265       .  A
C317        C484   1.497       .  S
O318       Cr327   1.986       .  S
O318        C326   1.259       .  A
O319       Cr327   2.042       .  S
O319        C320   1.274       .  A
C320        O321   1.257       .  A
C320        C391   1.485       .  S
O321       Cr328   1.957       .  S
O322       Cr328   2.005       .  S
O322        C323   1.267       .  A
C323        O324   1.263       .  A
C323        C436   1.466       .  S
O324       Cr329   1.991       .  S
O325       Cr329   2.004       .  S
O325        C326   1.262       .  A
C326        C604   1.485       .  S
Cr327       O330   1.766       .  S
Cr328       O330   1.770       .  S
Cr329       O330   1.771       .  S
O331       Cr349   2.019       .  S
O331        C339   1.274       .  A
O332       Cr349   1.984       .  S
O332        C333   1.259       .  A
C333        O334   1.259       .  A
C333        C583   1.481       .  S
O334       Cr350   1.995       .  S
O335       Cr350   2.005       .  S
O335        C336   1.263       .  A
C336        O337   1.259       .  A
C336        C388   1.473       .  S
O337       Cr351   1.992       .  S
O338       Cr351   1.983       .  S
O338        C339   1.271       .  A
C339        C415   1.488       .  S
O340       Cr349   2.015       .  S
O340        C348   1.262       .  A
O341       Cr349   2.025       .  S
O341        C342   1.271       .  A
C342        O343   1.258       .  A
C342        C367   1.475       .  S
O343       Cr350   1.958       .  S
O344       Cr350   1.987       .  S
O344        C345   1.264       .  A
C345        O346   1.268       .  A
C345        C559   1.473       .  S
O346       Cr351   2.003       .  S
O347       Cr351   1.967       .  S
O347        C348   1.255       .  A
C348       C1039   1.492       .  S
Cr349       O352   1.781       .  S
Cr350       O352   1.775       .  S
Cr351       O352   1.770       .  S
C353        C354   1.399       .  A
C353        C358   1.404       .  A
C353        H369   1.084       .  S
C354        C355   1.403   1_655  A
C354        H370   1.083   1_655  S
C355        C365   1.405       .  A
C355        C356   1.415       .  A
C356        C362   1.410       .  A
C356        C357   1.412   1_455  A
C357        C359   1.415       .  A
C357        C358   1.410       .  A
C358        C366   1.400       .  A
C359        C368   1.406       .  A
C359        C360   1.403       .  A
C360        C361   1.399   1_655  A
C360        H371   1.084       .  S
C361        C362   1.404       .  A
C361        H372   1.084       .  S
C362        C363   1.401       .  A
C363        C364   1.405       .  A
C363        H373   1.085       .  S
C364        C365   1.402       .  A
C365        H374   1.084       .  S
C366        C367   1.407       .  A
C366        H375   1.084       .  S
C367        C368   1.404       .  A
C368        H376   1.085       .  S
C377        C378   1.400       .  A
C377        C382   1.404       .  A
C377        H393   1.084       .  S
C378        C379   1.405       .  A
C378        H394   1.084       .  S
C379        C389   1.402       .  A
C379        C380   1.409       .  A
C380        C386   1.416       .  A
C380        C381   1.415       .  A
C381        C383   1.409       .  A
C381        C382   1.415       .  A
C382        C390   1.410       .  A
C383        C392   1.402       .  A
C383        C384   1.405       .  A
C384        C385   1.400       .  A
C384        H395   1.083       .  S
C385        C386   1.403       .  A
C385        H396   1.083       .  S
C386        C387   1.408       .  A
C387        C388   1.403       .  A
C387        H397   1.084       .  S
C388        C389   1.407       .  A
C389        H398   1.085       .  S
C390        C391   1.406       .  A
C390        H399   1.084       .  S
C391        C392   1.410       .  A
C392        H400   1.084       .  S
C401        C402   1.396       .  A
C401        C406   1.402       .  A
C401        H417   1.084       .  S
C402        C403   1.403       .  A
C402        H418   1.084       .  S
C403        C413   1.397       .  A
C403        C404   1.408       .  A
C404        C410   1.414       .  A
C404        C405   1.415       .  A
C405        C407   1.410       .  A
C405        C406   1.413       .  A
C406        C414   1.402       .  A
C407        C416   1.409       .  A
C407        C408   1.406       .  A
C408        C409   1.404       .  A
C408        H419   1.083       .  S
C409        C410   1.406       .  A
C409        H420   1.083       .  S
C410        C411   1.414       .  A
C411        C412   1.411       .  A
C411        H421   1.084       .  S
C412        C413   1.410       .  A
C413        H422   1.084       .  S
C414        C415   1.405       .  A
C414        H423   1.084       .  S
C415        C416   1.413       .  A
C416        H424   1.084       .  S
C425        C426   1.403       .  A
C425        C430   1.405       .  A
C425        H441   1.083       .  S
C426        C427   1.405       .  A
C426        H442   1.083       .  S
C427        C437   1.407       .  A
C427        C428   1.412       .  A
C428        C434   1.413       .  A
C428        C429   1.412       .  A
C429        C431   1.410       .  A
C429        C430   1.414       .  A
C430        C438   1.411       .  A
C431        C440   1.397       .  A
C431        C432   1.402       .  A
C432        C433   1.396       .  A
C432        H443   1.084       .  S
C433        C434   1.402       .  A
C433        H444   1.084       .  S
C434        C435   1.399       .  A
C435        C436   1.400       .  A
C435        H445   1.085       .  S
C436        C437   1.406       .  A
C437        H446   1.084       .  S
C438        C439   1.406       .  A
C438        H447   1.084       .  S
C439        C440   1.404       .  A
C440        H448   1.085       .  S
C449        C450   1.396       .  A
C449        C454   1.404       .  A
C449        H465   1.084       .  S
C450        C451   1.402       .  A
C450        H466   1.084       .  S
C451        C461   1.400   1_565  A
C451        C452   1.413       .  A
C452        C458   1.411   1_565  A
C452        C453   1.413       .  A
C453        C455   1.414       .  A
C453        C454   1.408       .  A
C454        C462   1.396       .  A
C455        C464   1.412       .  A
C455        C456   1.405       .  A
C456        C457   1.403   1_565  A
C456        H467   1.084       .  S
C457        C458   1.406       .  A
C457        H468   1.083       .  S
C458        C459   1.409       .  A
C459        C460   1.408       .  A
C459        H469   1.084       .  S
C460        C461   1.403       .  A
C461        H470   1.085       .  S
C462        C463   1.412       .  A
C462        H471   1.085       .  S
C463        C464   1.408       .  A
C464        H472   1.084       .  S
C473        C474   1.402       .  A
C473        C478   1.404       .  A
C473        H489   1.083       .  S
C474        C475   1.405   1_565  A
C474        H490   1.083       .  S
C475        C485   1.410       .  A
C475        C476   1.412       .  A
C476        C482   1.411       .  A
C476        C477   1.419   1_545  A
C477        C479   1.412   1_455  A
C477        C478   1.412       .  A
C478        C486   1.409   1_455  A
C479        C488   1.410       .  A
C479        C480   1.405   1_565  A
C480        C481   1.402       .  A
C480        H491   1.084       .  S
C481        C482   1.405   1_655  A
C481        H492   1.084       .  S
C482        C483   1.409       .  A
C483        C484   1.412       .  A
C483        H493   1.084       .  S
C484        C485   1.410       .  A
C485        H494   1.084       .  S
C486        C487   1.409       .  A
C486        H495   1.084   1_655  S
C487        C488   1.411       .  A
C488        H496   1.084       .  S
C497        C498   1.398       .  A
C497        C502   1.403       .  A
C497        H513   1.084       .  S
C498        C499   1.404       .  A
C498        H514   1.083       .  S
C499        C509   1.400   1_455  A
C499        C500   1.410       .  A
C500        C506   1.414       .  A
C500        C501   1.414       .  A
C501        C503   1.412       .  A
C501        C502   1.413       .  A
C502        C510   1.402       .  A
C503        C512   1.407       .  A
C503        C504   1.405       .  A
C504        C505   1.402       .  A
C504        H515   1.083       .  S
C505        C506   1.404       .  A
C505        H516   1.084       .  S
C506        C507   1.410   1_455  A
C507        C508   1.406       .  A
C507        H517   1.084       .  S
C508        C509   1.406       .  A
C509        H518   1.085       .  S
C510        C511   1.403       .  A
C510        H519   1.085       .  S
C511        C512   1.405       .  A
C512        H520   1.084       .  S
C521        C522   1.396       .  A
C521        C526   1.401       .  A
C521        H537   1.084       .  S
C522        C523   1.403       .  A
C522        H538   1.082       .  S
C523        C533   1.397       .  A
C523        C524   1.407       .  A
C524        C530   1.414       .  A
C524        C525   1.414       .  A
C525        C527   1.411       .  A
C525        C526   1.413       .  A
C526        C534   1.400       .  A
C527        C536   1.409       .  A
C527        C528   1.406       .  A
C528        C529   1.404       .  A
C528        H539   1.083       .  S
C529        C530   1.405       .  A
C529        H540   1.084       .  S
C530        C531   1.415       .  A
C531        C532   1.410       .  A
C531        H541   1.084       .  S
C532        C533   1.408       .  A
C533        H542   1.077       .  S
C534        C535   1.401       .  A
C534        H543   1.085       .  S
C535        C536   1.408       .  A
C536        H544   1.084       .  S
C545        C546   1.401   1_545  A
C545        C550   1.403       .  A
C545        H561   1.083       .  S
C546        C547   1.405       .  A
C546        H562   1.084       .  S
C547        C557   1.404       .  A
C547        C548   1.411   1_565  A
C548        C554   1.413       .  A
C548        C549   1.411       .  A
C549        C551   1.409       .  A
C549        C550   1.415       .  A
C550        C558   1.409       .  A
C551        C560   1.395       .  A
C551        C552   1.403       .  A
C552        C553   1.396       .  A
C552        H563   1.084       .  S
C553        C554   1.402       .  A
C553        H564   1.084       .  S
C554        C555   1.400   1_545  A
C555        C556   1.405       .  A
C555        H565   1.085       .  S
C556        C557   1.407       .  A
C557        H566   1.084       .  S
C558        C559   1.403       .  A
C558        H567   1.084       .  S
C559        C560   1.407       .  A
C560        H568   1.085       .  S
C569        C570   1.404       .  A
C569        C574   1.406       .  A
C569        H585   1.083       .  S
C570        C571   1.404       .  A
C570        H586   1.084       .  S
C571        C581   1.414       .  A
C571        C572   1.416       .  A
C572        C578   1.407       .  A
C572        C573   1.414       .  A
C573        C575   1.414       .  A
C573        C574   1.410       .  A
C574        C582   1.409       .  A
C575        C584   1.400       .  A
C575        C576   1.401       .  A
C576        C577   1.395       .  A
C576        H587   1.084       .  S
C577        C578   1.403       .  A
C577        H588   1.083       .  S
C578        C579   1.395       .  A
C579        C580   1.406       .  A
C579        H589   1.081       .  S
C580        C581   1.406       .  A
C581        H590   1.084       .  S
C582        C583   1.411       .  A
C582        H591   1.084       .  S
C583        C584   1.403       .  A
C584        H592   1.085       .  S
C593        C594   1.400       .  A
C593        C598   1.404       .  A
C593        H609   1.084       .  S
C594        C595   1.404       .  A
C594        H610   1.083       .  S
C595        C605   1.405       .  A
C595        C596   1.410       .  A
C596        C602   1.412       .  A
C596        C597   1.414       .  A
C597        C599   1.410       .  A
C597        C598   1.413       .  A
C598        C606   1.407       .  A
C599        C608   1.403       .  A
C599        C600   1.404       .  A
C600        C601   1.399       .  A
C600        H611   1.083       .  S
C601        C602   1.403       .  A
C601        H612   1.084       .  S
C602        C603   1.405       .  A
C603        C604   1.407       .  A
C603        H613   1.084       .  S
C604        C605   1.410       .  A
C605        H614   1.084       .  S
C606        C607   1.407       .  A
C606        H615   1.084       .  S
C607        C608   1.409       .  A
C608        H616   1.084       .  S
C617        C618   1.404       .  A
C617        C622   1.406       .  A
C617        H633   1.084       .  S
C618        C619   1.406       .  A
C618        H634   1.083       .  S
C619        C629   1.414       .  A
C619        C620   1.414       .  A
C620        C626   1.410       .  A
C620        C621   1.414       .  A
C621        C623   1.413       .  A
C621        C622   1.412       .  A
C622        C630   1.410       .  A
C623        C632   1.399       .  A
C623        C624   1.401       .  A
C624        C625   1.396       .  A
C624        H635   1.084       .  S
C625        C626   1.403       .  A
C625        H636   1.084       .  S
C626        C627   1.398       .  A
C627        C628   1.406       .  A
C627        H637   1.085       .  S
C628        C629   1.408       .  A
C629        H638   1.084       .  S
C630        C631   1.408       .  A
C630        H639   1.085       .  S
C631        C632   1.401       .  A
C632        H640   1.085       .  S
C641        C642   1.402   1_545  A
C641        C646   1.405       .  A
C641        H657   1.083       .  S
C642        C643   1.404       .  A
C642        H658   1.083       .  S
C643        C653   1.410       .  A
C643        C644   1.414       .  A
C644        C650   1.409       .  A
C644        C645   1.413       .  A
C645        C647   1.413       .  A
C645        C646   1.412   1_565  A
C646        C654   1.407       .  A
C647        C656   1.400   1_565  A
C647        C648   1.402       .  A
C648        C649   1.396       .  A
C648        H659   1.084       .  S
C649        C650   1.403       .  A
C649        H660   1.084       .  S
C650        C651   1.397       .  A
C651        C652   1.409       .  A
C651        H661   1.085       .  S
C652        C653   1.408       .  A
C653        H662   1.084       .  S
C654        C655   1.406       .  A
C654        H663   1.084       .  S
C655        C656   1.403       .  A
C656        H664   1.085       .  S
C665        C666   1.402       .  A
C665        C670   1.405       .  A
C665        H681   1.083       .  S
C666        C667   1.405       .  A
C666        H682   1.084       .  S
C667        C677   1.410       .  A
C667        C668   1.413       .  A
C668        C674   1.410       .  A
C668        C669   1.418       .  A
C669        C671   1.413       .  A
C669        C670   1.411       .  A
C670        C678   1.408       .  A
C671        C680   1.409       .  A
C671        C672   1.404       .  A
C672        C673   1.401       .  A
C672        H683   1.084       .  S
C673        C674   1.405       .  A
C673        H684   1.083       .  S
C674        C675   1.407       .  A
C675        C676   1.411       .  A
C675        H685   1.084       .  S
C676        C677   1.410       .  A
C677        H686   1.084       .  S
C678        C679   1.411       .  A
C678        H687   1.084       .  S
C679        C680   1.408       .  A
C680        H688   1.084       .  S
C689        C690   1.402       .  A
C689        C694   1.405       .  A
C689        H705   1.083       .  S
C690        C691   1.405   1_565  A
C690        H706   1.083       .  S
C691        C701   1.411       .  A
C691        C692   1.413       .  A
C692        C698   1.410       .  A
C692        C693   1.417   1_545  A
C693        C695   1.413       .  A
C693        C694   1.411       .  A
C694        C702   1.408       .  A
C695        C704   1.406       .  A
C695        C696   1.403   1_565  A
C696        C697   1.400       .  A
C696        H707   1.084       .  S
C697        C698   1.405       .  A
C697        H708   1.084       .  S
C698        C699   1.404       .  A
C699        C700   1.411       .  A
C699        H709   1.084       .  S
C700        C701   1.409       .  A
C701        H710   1.084       .  S
C702        C703   1.410       .  A
C702        H711   1.084       .  S
C703        C704   1.407       .  A
C704        H712   1.084       .  S
C713        C714   1.402       .  A
C713        C718   1.404       .  A
C713        H729   1.084       .  S
C714        C715   1.405       .  A
C714        H730   1.083       .  S
C715        C725   1.407       .  A
C715        C716   1.411       .  A
C716        C722   1.414       .  A
C716        C717   1.414       .  A
C717        C719   1.409       .  A
C717        C718   1.415       .  A
C718        C726   1.412       .  A
C719        C728   1.399       .  A
C719        C720   1.404       .  A
C720        C721   1.398       .  A
C720        H731   1.084       .  S
C721        C722   1.403       .  A
C721        H732   1.084       .  S
C722        C723   1.404       .  A
C723        C724   1.403       .  A
C723        H733   1.085       .  S
C724        C725   1.405       .  A
C725        H734   1.084       .  S
C726        C727   1.405       .  A
C726        H735   1.084       .  S
C727        C728   1.407       .  A
C728        H736   1.085       .  S
C737        C738   1.394       .  A
C737        C742   1.401       .  A
C737        H753   1.084       .  S
C738        C739   1.403       .  A
C738        H754   1.084       .  S
C739        C749   1.394       .  A
C739        C740   1.408       .  A
C740        C746   1.414       .  A
C740        C741   1.415       .  A
C741        C743   1.411   1_655  A
C741        C742   1.413       .  A
C742        C750   1.399   1_655  A
C743        C752   1.413       .  A
C743        C744   1.407       .  A
C744        C745   1.406   1_455  A
C744        H755   1.083       .  S
C745        C746   1.406       .  A
C745        H756   1.084       .  S
C746        C747   1.417       .  A
C747        C748   1.411       .  A
C747        H757   1.084       .  S
C748        C749   1.410       .  A
C749        H758   1.084       .  S
C750        C751   1.403       .  A
C750        H759   1.085       .  S
C751        C752   1.411       .  A
C752        H760   1.084       .  S
C761        C762   1.400       .  A
C761        C766   1.404       .  A
C761        H777   1.084       .  S
C762        C763   1.404       .  A
C762        H778   1.083       .  S
C763        C773   1.408   1_455  A
C763        C764   1.413       .  A
C764        C770   1.410   1_455  A
C764        C765   1.417       .  A
C765        C767   1.412       .  A
C765        C766   1.411       .  A
C766        C774   1.406       .  A
C767        C776   1.409       .  A
C767        C768   1.404   1_455  A
C768        C769   1.402       .  A
C768        H779   1.084       .  S
C769        C770   1.405       .  A
C769        H780   1.084       .  S
C770        C771   1.407       .  A
C771        C772   1.413       .  A
C771        H781   1.084       .  S
C772        C773   1.408       .  A
C773        H782   1.084       .  S
C774        C775   1.410       .  A
C774        H783   1.084       .  S
C775        C776   1.409       .  A
C776        H784   1.084       .  S
C785        C786   1.405       .  A
C785        C790   1.406       .  A
C785        H801   1.083   1_455  S
C786        C787   1.405       .  A
C786        H802   1.083       .  S
C787        C797   1.416       .  A
C787        C788   1.415       .  A
C788        C794   1.407       .  A
C788        C789   1.415       .  A
C789        C791   1.414       .  A
C789        C790   1.411       .  A
C790        C798   1.409   1_455  A
C791        C800   1.402   1_455  A
C791        C792   1.402       .  A
C792        C793   1.396       .  A
C792        H803   1.084       .  S
C793        C794   1.404       .  A
C793        H804   1.084       .  S
C794        C795   1.396       .  A
C795        C796   1.413       .  A
C795        H805   1.084       .  S
C796        C797   1.410       .  A
C797        H806   1.084       .  S
C798        C799   1.409       .  A
C798        H807   1.084       .  S
C799        C800   1.403       .  A
C800        H808   1.085       .  S
C809        C810   1.406       .  A
C809        C814   1.406       .  A
C809        H825   1.083       .  S
C810        C811   1.406       .  A
C810        H826   1.083       .  S
C811        C821   1.411       .  A
C811        C812   1.412       .  A
C812        C818   1.413       .  A
C812        C813   1.414       .  A
C813        C815   1.408       .  A
C813        C814   1.415       .  A
C814        C822   1.416       .  A
C815        C824   1.393       .  A
C815        C816   1.402       .  A
C816        C817   1.394       .  A
C816        H827   1.083       .  S
C817        C818   1.401       .  A
C817        H828   1.084       .  S
C818        C819   1.398       .  A
C819        C820   1.400       .  A
C819        H829   1.085       .  S
C820        C821   1.409       .  A
C821        H830   1.084       .  S
C822        C823   1.409       .  A
C822        H831   1.084       .  S
C823        C824   1.407       .  A
C824        H832   1.084       .  S
C833        C834   1.393       .  A
C833        C838   1.403       .  A
C833        H849   1.083       .  S
C834        C835   1.400       .  A
C834        H850   1.084       .  S
C835        C845   1.398   1_545  A
C835        C836   1.415       .  A
C836        C842   1.409       .  A
C836        C837   1.412       .  A
C837        C839   1.416       .  A
C837        C838   1.404       .  A
C838        C846   1.389       .  A
C839        C848   1.416       .  A
C839        C840   1.405       .  A
C840        C841   1.404       .  A
C840        H851   1.083       .  S
C841        C842   1.406       .  A
C841        H852   1.083   1_545  S
C842        C843   1.406   1_545  A
C843        C844   1.410       .  A
C843        H853   1.084       .  S
C844        C845   1.401       .  A
C845        H854   1.085       .  S
C846        C847   1.413       .  A
C846        H855   1.083       .  S
C847        C848   1.408       .  A
C848        H856   1.084       .  S
C857        C858   1.404       .  A
C857        C862   1.405       .  A
C857        H873   1.083       .  S
C858        C859   1.406       .  A
C858        H874   1.083       .  S
C859        C869   1.408       .  A
C859        C860   1.411       .  A
C860        C866   1.413       .  A
C860        C861   1.409       .  A
C861        C863   1.406       .  A
C861        C862   1.415       .  A
C862        C870   1.414       .  A
C863        C872   1.388       .  A
C863        C864   1.402       .  A
C864        C865   1.391       .  A
C864        H875   1.084       .  S
C865        C866   1.399       .  A
C865        H876   1.084       .  S
C866        C867   1.392       .  A
C867        C868   1.399       .  A
C867        H877   1.086       .  S
C868        C869   1.407       .  A
C869        H878   1.084       .  S
C870        C871   1.407       .  A
C870        H879   1.083       .  S
C871        C872   1.409       .  A
C872        H880   1.085       .  S
C881        C882   1.400       .  A
C881        C886   1.404       .  A
C881        H897   1.084       .  S
C882        C883   1.404   1_655  A
C882        H898   1.084       .  S
C883        C893   1.403       .  A
C883        C884   1.410       .  A
C884        C890   1.413       .  A
C884        C885   1.414   1_455  A
C885        C887   1.410   1_655  A
C885        C886   1.413       .  A
C886        C894   1.407       .  A
C887        C896   1.404   1_455  A
C887        C888   1.404       .  A
C888        C889   1.400       .  A
C888        H899   1.083       .  S
C889        C890   1.403       .  A
C889        H900   1.084       .  S
C890        C891   1.406       .  A
C891        C892   1.407       .  A
C891        H901   1.084       .  S
C892        C893   1.409       .  A
C893        H902   1.084       .  S
C894        C895   1.408       .  A
C894        H903   1.084       .  S
C895        C896   1.410       .  A
C896        H904   1.084       .  S
C905        C906   1.400       .  A
C905        C910   1.405       .  A
C905        H921   1.083       .  S
C906        C907   1.403       .  A
C906        H922   1.084       .  S
C907        C917   1.408       .  A
C907        C908   1.413       .  A
C908        C914   1.409       .  A
C908        C909   1.416       .  A
C909        C911   1.414       .  A
C909        C910   1.410       .  A
C910        C918   1.405       .  A
C911        C920   1.409       .  A
C911        C912   1.404       .  A
C912        C913   1.401       .  A
C912        H923   1.084       .  S
C913        C914   1.405       .  A
C913        H924   1.083       .  S
C914        C915   1.405       .  A
C915        C916   1.412       .  A
C915        H925   1.084       .  S
C916        C917   1.407       .  A
C917        H926   1.084       .  S
C918        C919   1.409       .  A
C918        H927   1.084       .  S
C919        C920   1.407       .  A
C920        H928   1.084       .  S
C929        C930   1.402       .  A
C929        C934   1.405       .  A
C929        H945   1.083   1_455  S
C930        C931   1.404       .  A
C930        H946   1.083       .  S
C931        C941   1.410       .  A
C931        C932   1.416       .  A
C932        C938   1.407       .  A
C932        C933   1.408       .  A
C933        C935   1.415   1_554  A
C933        C934   1.411       .  A
C934        C942   1.404   1_455  A
C935        C944   1.396   1_455  A
C935        C936   1.400       .  A
C936        C937   1.393       .  A
C936        H947   1.084       .  S
C937        C938   1.402   1_556  A
C937        H948   1.084       .  S
C938        C939   1.389       .  A
C939        C940   1.405       .  A
C939        H949   1.084       .  S
C940        C941   1.403       .  A
C941        H950   1.084       .  S
C942        C943   1.404   1_554  A
C942        H951   1.084       .  S
C943        C944   1.398       .  A
C944        H952   1.085       .  S
C953        C954   1.394   1_554  A
C953        C958   1.401   1_554  A
C953        H969   1.084       .  S
C954        C955   1.403       .  A
C954        H970   1.084   1_556  S
C955        C965   1.392       .  A
C955        C956   1.408       .  A
C956        C962   1.414       .  A
C956        C957   1.411       .  A
C957        C959   1.411       .  A
C957        C958   1.413       .  A
C958        C966   1.397   1_556  A
C959        C968   1.407       .  A
C959        C960   1.405       .  A
C960        C961   1.403       .  A
C960        H971   1.083       .  S
C961        C962   1.405       .  A
C961        H972   1.083       .  S
C962        C963   1.411       .  A
C963        C964   1.408       .  A
C963        H973   1.083       .  S
C964        C965   1.409       .  A
C965        H974   1.084       .  S
C966        C967   1.401       .  A
C966        H975   1.086       .  S
C967        C968   1.408   1_554  A
C968        H976   1.084       .  S
C977        C978   1.398   1_554  A
C977        C982   1.404       .  A
C977        H993   1.083       .  S
C978        C979   1.403       .  A
C978        H994   1.084       .  S
C979        C989   1.405       .  A
C979        C980   1.413   1_556  A
C980        C986   1.411       .  A
C980        C981   1.417       .  A
C981        C983   1.414       .  A
C981        C982   1.408       .  A
C982        C990   1.400       .  A
C983        C992   1.415       .  A
C983        C984   1.405       .  A
C984        C985   1.404       .  A
C984        H995   1.083       .  S
C985        C986   1.406       .  A
C985        H996   1.083       .  S
C986        C987   1.411   1_554  A
C987        C988   1.409       .  A
C987        H997   1.084       .  S
C988        C989   1.404       .  A
C989        H998   1.085       .  S
C990        C991   1.411       .  A
C990        H999   1.081       .  S
C991        C992   1.409       .  A
C992       H1000   1.084       .  S
C1001      C1002   1.391       .  A
C1001      C1006   1.400   1_554  A
C1001      H1017   1.084       .  S
C1002      C1003   1.402   1_545  A
C1002      H1018   1.084       .  S
C1003      C1013   1.389       .  A
C1003      C1004   1.408   1_564  A
C1004      C1010   1.414   1_545  A
C1004      C1005   1.410       .  A
C1005      C1007   1.413       .  A
C1005      C1006   1.411       .  A
C1006      C1014   1.391       .  A
C1007      C1016   1.410       .  A
C1007      C1008   1.405       .  A
C1008      C1009   1.405       .  A
C1008      H1019   1.083       .  S
C1009      C1010   1.406   1_545  A
C1009      H1020   1.083   1_545  S
C1010      C1011   1.413       .  A
C1011      C1012   1.409   1_556  A
C1011      H1021   1.084       .  S
C1012      C1013   1.408       .  A
C1013      H1022   1.084       .  S
C1014      C1015   1.400       .  A
C1014      H1023   1.084       .  S
C1015      C1016   1.406       .  A
C1016      H1024   1.084       .  S
C1025      C1026   1.406       .  A
C1025      C1030   1.406       .  A
C1025      H1041   1.083       .  S
C1026      C1027   1.407       .  A
C1026      H1042   1.083       .  S
C1027      C1037   1.414       .  A
C1027      C1028   1.412       .  A
C1028      C1034   1.411       .  A
C1028      C1029   1.414       .  A
C1029      C1031   1.407       .  A
C1029      C1030   1.414       .  A
C1030      C1038   1.418       .  A
C1031      C1040   1.392       .  A
C1031      C1032   1.402       .  A
C1032      C1033   1.393       .  A
C1032      H1043   1.084       .  S
C1033      C1034   1.401       .  A
C1033      H1044   1.084       .  S
C1034      C1035   1.396       .  A
C1035      C1036   1.406       .  A
C1035      H1045   1.085       .  S
C1036      C1037   1.410       .  A
C1037      H1046   1.084       .  S
C1038      C1039   1.411       .  A
C1038      H1047   1.084       .  S
C1039      C1040   1.411       .  A
C1040      H1048   1.084       .  S
C1049      C1050   1.398       .  A
C1049      C1054   1.403       .  A
C1049      H1065   1.084       .  S
C1050      C1051   1.403   1_545  A
C1050      H1066   1.084       .  S
C1051      C1061   1.401       .  A
C1051      C1052   1.410       .  A
C1052      C1058   1.412       .  A
C1052      C1053   1.414   1_565  A
C1053      C1055   1.412       .  A
C1053      C1054   1.412       .  A
C1054      C1062   1.402       .  A
C1055      C1064   1.408       .  A
C1055      C1056   1.405   1_545  A
C1056      C1057   1.402       .  A
C1056      H1067   1.083       .  S
C1057      C1058   1.405       .  A
C1057      H1068   1.083       .  S
C1058      C1059   1.409       .  A
C1059      C1060   1.409       .  A
C1059      H1069   1.084       .  S
C1060      C1061   1.409       .  A
C1061      H1070   1.084       .  S
C1062      C1063   1.406       .  A
C1062      H1071   1.084       .  S
C1063      C1064   1.409       .  A
C1064      H1072   1.084       .  S
C1073      C1074   1.398       .  A
C1073      C1078   1.402       .  A
C1073      H1089   1.083       .  S
C1074      C1075   1.403       .  A
C1074      H1090   1.084       .  S
C1075      C1085   1.399       .  A
C1075      C1076   1.410       .  A
C1076      C1082   1.415       .  A
C1076      C1077   1.413       .  A
C1077      C1079   1.410       .  A
C1077      C1078   1.414       .  A
C1078      C1086   1.405       .  A
C1079      C1088   1.403       .  A
C1079      C1080   1.405       .  A
C1080      C1081   1.401       .  A
C1080      H1091   1.084       .  S
C1081      C1082   1.404       .  A
C1081      H1092   1.084       .  S
C1082      C1083   1.409       .  A
C1083      C1084   1.404       .  A
C1083      H1093   1.084   1_556  S
C1084      C1085   1.404       .  A
C1085      H1094   1.085       .  S
C1086      C1087   1.403       .  A
C1086      H1095   1.084       .  S
C1087      C1088   1.411       .  A
C1088      H1096   1.085       .  S
C1097      C1098   1.401       .  A
C1097      C1102   1.404       .  A
C1097      H1113   1.084       .  S
C1098      C1099   1.405       .  A
C1098      H1114   1.083       .  S
C1099      C1109   1.403       .  A
C1099      C1100   1.410       .  A
C1100      C1106   1.415       .  A
C1100      C1101   1.414       .  A
C1101      C1103   1.409   1_655  A
C1101      C1102   1.415       .  A
C1102      C1110   1.410   1_654  A
C1103      C1112   1.402   1_554  A
C1103      C1104   1.405       .  A
C1104      C1105   1.400   1_455  A
C1104      H1115   1.083       .  S
C1105      C1106   1.403       .  A
C1105      H1116   1.084       .  S
C1106      C1107   1.407       .  A
C1107      C1108   1.404       .  A
C1107      H1117   1.085       .  S
C1108      C1109   1.409       .  A
C1109      H1118   1.083       .  S
C1110      C1111   1.404       .  A
C1110      H1119   1.084       .  S
C1111      C1112   1.406       .  A
C1112      H1120   1.082       .  S
C1121      C1122   1.403   1_545  A
C1121      C1126   1.406       .  A
C1121      H1137   1.083       .  S
C1122      C1123   1.404       .  A
C1122      H1138   1.084       .  S
C1123      C1133   1.412       .  A
C1123      C1124   1.415       .  A
C1124      C1130   1.408       .  A
C1124      C1125   1.412       .  A
C1125      C1127   1.412   1_556  A
C1125      C1126   1.410   1_565  A
C1126      C1134   1.408       .  A
C1127      C1136   1.399   1_565  A
C1127      C1128   1.402       .  A
C1128      C1129   1.395       .  A
C1128      H1139   1.083       .  S
C1129      C1130   1.402   1_554  A
C1129      H1140   1.084       .  S
C1130      C1131   1.393       .  A
C1131      C1132   1.408       .  A
C1131      H1141   1.085       .  S
C1132      C1133   1.406       .  A
C1133      H1142   1.084       .  S
C1134      C1135   1.411   1_556  A
C1134      H1143   1.084       .  S
C1135      C1136   1.407       .  A
C1136      H1144   1.084       .  S
C1145      C1146   1.394   1_556  A
C1145      C1150   1.401       .  A
C1145      H1161   1.084       .  S
C1146      C1147   1.402       .  A
C1146      H1162   1.084   1_554  S
C1147      C1157   1.392       .  A
C1147      C1148   1.409       .  A
C1148      C1154   1.415       .  A
C1148      C1149   1.410       .  A
C1149      C1151   1.411       .  A
C1149      C1150   1.413   1_554  A
C1150      C1158   1.398       .  A
C1151      C1160   1.405       .  A
C1151      C1152   1.405       .  A
C1152      C1153   1.402       .  A
C1152      H1163   1.083       .  S
C1153      C1154   1.404       .  A
C1153      H1164   1.084       .  S
C1154      C1155   1.409       .  A
C1155      C1156   1.404       .  A
C1155      H1165   1.084       .  S
C1156      C1157   1.403       .  A
C1157      H1166   1.084       .  S
C1158      C1159   1.402       .  A
C1158      H1167   1.085       .  S
C1159      C1160   1.408   1_556  A
C1160      H1168   1.084       .  S
C1169      C1170   1.399       .  A
C1169      C1174   1.404       .  A
C1169      H1185   1.083       .  S
C1170      C1171   1.403       .  A
C1170      H1186   1.084       .  S
C1171      C1181   1.404       .  A
C1171      C1172   1.412       .  A
C1172      C1178   1.411       .  A
C1172      C1173   1.415       .  A
C1173      C1175   1.413       .  A
C1173      C1174   1.410       .  A
C1174      C1182   1.403       .  A
C1175      C1184   1.409       .  A
C1175      C1176   1.405       .  A
C1176      C1177   1.402       .  A
C1176      H1187   1.084       .  S
C1177      C1178   1.405       .  A
C1177      H1188   1.083       .  S
C1178      C1179   1.407       .  A
C1179      C1180   1.410       .  A
C1179      H1189   1.084       .  S
C1180      C1181   1.407       .  A
C1181      H1190   1.084       .  S
C1182      C1183   1.408       .  A
C1182      H1191   1.084       .  S
C1183      C1184   1.409       .  A
C1184      H1192   1.084       .  S
C1193      C1194   1.403       .  A
C1193      C1198   1.405       .  A
C1193      H1209   1.083       .  S
C1194      C1195   1.405       .  A
C1194      H1210   1.084       .  S
C1195      C1205   1.410       .  A
C1195      C1196   1.412       .  A
C1196      C1202   1.411       .  A
C1196      C1197   1.418       .  A
C1197      C1199   1.411       .  A
C1197      C1198   1.411       .  A
C1198      C1206   1.410       .  A
C1199      C1208   1.408       .  A
C1199      C1200   1.404       .  A
C1200      C1201   1.401       .  A
C1200      H1211   1.084       .  S
C1201      C1202   1.405       .  A
C1201      H1212   1.083       .  S
C1202      C1203   1.408       .  A
C1203      C1204   1.410       .  A
C1203      H1213   1.084       .  S
C1204      C1205   1.410       .  A
C1205      H1214   1.084       .  S
C1206      C1207   1.411       .  A
C1206      H1215   1.084       .  S
C1207      C1208   1.410       .  A
C1208      H1216   1.084       .  S
C1217      C1218   1.403       .  A
C1217      C1222   1.405       .  A
C1217      H1233   1.084       .  S
C1218      C1219   1.406       .  A
C1218      H1234   1.084       .  S
C1219      C1229   1.410       .  A
C1219      C1220   1.412       .  A
C1220      C1226   1.411       .  A
C1220      C1221   1.417       .  A
C1221      C1223   1.412       .  A
C1221      C1222   1.412       .  A
C1222      C1230   1.410       .  A
C1223      C1232   1.406       .  A
C1223      C1224   1.403       .  A
C1224      C1225   1.400       .  A
C1224      H1235   1.084       .  S
C1225      C1226   1.404       .  A
C1225      H1236   1.083       .  S
C1226      C1227   1.406       .  A
C1227      C1228   1.409       .  A
C1227      H1237   1.084       .  S
C1228      C1229   1.412       .  A
C1229      H1238   1.084       .  S
C1230      C1231   1.411       .  A
C1230      H1239   1.084       .  S
C1231      C1232   1.408       .  A
C1232      H1240   1.084       .  S
C1241      C1242   1.401       .  A
C1241      C1246   1.404       .  A
C1241      H1257   1.084       .  S
C1242      C1243   1.404       .  A
C1242      H1258   1.084       .  S
C1243      C1253   1.405       .  A
C1243      C1244   1.411       .  A
C1244      C1250   1.414       .  A
C1244      C1245   1.416       .  A
C1245      C1247   1.411       .  A
C1245      C1246   1.412       .  A
C1246      C1254   1.407       .  A
C1247      C1256   1.406       .  A
C1247      C1248   1.405       .  A
C1248      C1249   1.401       .  A
C1248      H1259   1.083       .  S
C1249      C1250   1.404       .  A
C1249      H1260   1.084       .  S
C1250      C1251   1.409       .  A
C1251      C1252   1.404       .  A
C1251      H1261   1.084       .  S
C1252      C1253   1.406       .  A
C1253      H1262   1.085       .  S
C1254      C1255   1.410       .  A
C1254      H1263   1.084       .  S
C1255      C1256   1.410       .  A
C1256      H1264   1.084       .  S
C1265      C1266   1.399       .  A
C1265      C1270   1.404       .  A
C1265      H1281   1.084       .  S
C1266      C1267   1.403       .  A
C1266      H1282   1.084       .  S
C1267      C1277   1.406   1_655  A
C1267      C1268   1.415       .  A
C1268      C1274   1.410   1_655  A
C1268      C1269   1.412       .  A
C1269      C1271   1.414       .  A
C1269      C1270   1.410       .  A
C1270      C1278   1.401       .  A
C1271      C1280   1.405       .  A
C1271      C1272   1.403       .  A
C1272      C1273   1.399   1_655  A
C1272      H1283   1.083       .  S
C1273      C1274   1.404       .  A
C1273      H1284   1.084       .  S
C1274      C1275   1.401       .  A
C1275      C1276   1.406       .  A
C1275      H1285   1.085       .  S
C1276      C1277   1.403       .  A
C1277      H1286   1.085       .  S
C1278      C1279   1.407       .  A
C1278      H1287   1.085       .  S
C1279      C1280   1.405       .  A
C1280      H1288   1.084       .  S
C1289      C1290   1.402       .  A
C1289      C1294   1.404       .  A
C1289      H1305   1.084       .  S
C1290      C1291   1.406       .  A
C1290      H1306   1.084       .  S
C1291      C1301   1.406       .  A
C1291      C1292   1.409       .  A
C1292      C1298   1.415       .  A
C1292      C1293   1.416       .  A
C1293      C1295   1.409       .  A
C1293      C1294   1.416       .  A
C1294      C1302   1.412       .  A
C1295      C1304   1.402       .  A
C1295      C1296   1.404       .  A
C1296      C1297   1.400       .  A
C1296      H1307   1.083       .  S
C1297      C1298   1.403       .  A
C1297      H1308   1.084       .  S
C1298      C1299   1.409       .  A
C1299      C1300   1.404       .  A
C1299      H1309   1.084       .  S
C1300      C1301   1.411       .  A
C1301      H1310   1.084       .  S
C1302      C1303   1.405       .  A
C1302      H1311   1.085       .  S
C1303      C1304   1.407       .  A
C1304      H1312   1.083       .  S
C1313      C1314   1.394       .  A
C1313      C1318   1.402       .  A
C1313      H1329   1.083       .  S
C1314      C1315   1.401       .  A
C1314      H1330   1.084       .  S
C1315      C1325   1.398       .  A
C1315      C1316   1.413       .  A
C1316      C1322   1.411       .  A
C1316      C1317   1.412       .  A
C1317      C1319   1.415       .  A
C1317      C1318   1.409       .  A
C1318      C1326   1.393       .  A
C1319      C1328   1.412       .  A
C1319      C1320   1.405       .  A
C1320      C1321   1.403       .  A
C1320      H1331   1.084       .  S
C1321      C1322   1.406       .  A
C1321      H1332   1.083       .  S
C1322      C1323   1.408       .  A
C1323      C1324   1.410       .  A
C1323      H1333   1.084       .  S
C1324      C1325   1.403       .  A
C1325      H1334   1.085       .  S
C1326      C1327   1.404       .  A
C1326      H1335   1.084       .  S
C1327      C1328   1.406       .  A
C1328      H1336   1.084       .  S
C1337      C1338   1.403   1_545  A
C1337      C1342   1.404       .  A
C1337      H1353   1.084       .  S
C1338      C1339   1.406       .  A
C1338      H1354   1.083       .  S
C1339      C1349   1.409       .  A
C1339      C1340   1.411   1_565  A
C1340      C1346   1.412       .  A
C1340      C1341   1.414       .  A
C1341      C1343   1.409       .  A
C1341      C1342   1.415       .  A
C1342      C1350   1.413       .  A
C1343      C1352   1.397       .  A
C1343      C1344   1.403       .  A
C1344      C1345   1.397       .  A
C1344      H1355   1.084       .  S
C1345      C1346   1.403       .  A
C1345      H1356   1.083       .  S
C1346      C1347   1.402   1_545  A
C1347      C1348   1.407       .  A
C1347      H1357   1.084       .  S
C1348      C1349   1.409       .  A
C1349      H1358   1.084       .  S
C1350      C1351   1.406       .  A
C1350      H1359   1.084       .  S
C1351      C1352   1.408       .  A
C1352      H1360   1.085       .  S
C1361      C1362   1.402       .  A
C1361      C1366   1.405       .  A
C1361      H1377   1.083       .  S
C1362      C1363   1.404       .  A
C1362      H1378   1.084       .  S
C1363      C1373   1.410       .  A
C1363      C1364   1.413       .  A
C1364      C1370   1.410       .  A
C1364      C1365   1.416       .  A
C1365      C1367   1.413       .  A
C1365      C1366   1.410       .  A
C1366      C1374   1.407       .  A
C1367      C1376   1.407       .  A
C1367      C1368   1.403       .  A
C1368      C1369   1.400       .  A
C1368      H1379   1.084       .  S
C1369      C1370   1.404       .  A
C1369      H1380   1.083       .  S
C1370      C1371   1.404       .  A
C1371      C1372   1.409       .  A
C1371      H1381   1.084       .  S
C1372      C1373   1.408       .  A
C1373      H1382   1.084       .  S
C1374      C1375   1.412       .  A
C1374      H1383   1.084       .  S
C1375      C1376   1.407       .  A
C1376      H1384   1.084       .  S
C1385      C1386   1.397       .  A
C1385      C1390   1.403   1_565  A
C1385      H1401   1.084       .  S
C1386      C1387   1.403   1_655  A
C1386      H1402   1.084       .  S
C1387      C1397   1.403       .  A
C1387      C1388   1.411       .  A
C1388      C1394   1.411       .  A
C1388      C1389   1.417   1_465  A
C1389      C1391   1.413       .  A
C1389      C1390   1.409       .  A
C1390      C1398   1.401       .  A
C1391      C1400   1.414       .  A
C1391      C1392   1.406   1_655  A
C1392      C1393   1.404       .  A
C1392      H1403   1.083       .  S
C1393      C1394   1.406   1_545  A
C1393      H1404   1.083       .  S
C1394      C1395   1.412       .  A
C1395      C1396   1.412       .  A
C1395      H1405   1.084       .  S
C1396      C1397   1.409       .  A
C1397      H1406   1.084       .  S
C1398      C1399   1.411       .  A
C1398      H1407   1.084       .  S
C1399      C1400   1.412       .  A
C1400      H1408   1.084       .  S
C1409      C1410   1.396       .  A
C1409      C1414   1.402       .  A
C1409      H1425   1.083       .  S
C1410      C1411   1.403   1_565  A
C1410      H1426   1.084       .  S
C1411      C1421   1.398       .  A
C1411      C1412   1.410   1_545  A
C1412      C1418   1.413   1_565  A
C1412      C1413   1.414       .  A
C1413      C1415   1.413       .  A
C1413      C1414   1.411       .  A
C1414      C1422   1.399       .  A
C1415      C1424   1.412       .  A
C1415      C1416   1.406       .  A
C1416      C1417   1.404       .  A
C1416      H1427   1.083       .  S
C1417      C1418   1.405   1_565  A
C1417      H1428   1.084       .  S
C1418      C1419   1.412       .  A
C1419      C1420   1.408       .  A
C1419      H1429   1.084       .  S
C1420      C1421   1.408       .  A
C1421      H1430   1.085       .  S
C1422      C1423   1.403       .  A
C1422      H1431   1.084       .  S
C1423      C1424   1.407       .  A
C1424      H1432   1.084       .  S
C1433      C1434   1.406       .  A
C1433      C1438   1.407       .  A
C1433      H1449   1.083       .  S
C1434      C1435   1.406       .  A
C1434      H1450   1.084       .  S
C1435      C1445   1.418       .  A
C1435      C1436   1.415       .  A
C1436      C1442   1.406       .  A
C1436      C1437   1.414       .  A
C1437      C1439   1.413       .  A
C1437      C1438   1.411       .  A
C1438      C1446   1.412       .  A
C1439      C1448   1.398       .  A
C1439      C1440   1.401       .  A
C1440      C1441   1.393       .  A
C1440      H1451   1.084       .  S
C1441      C1442   1.403       .  A
C1441      H1452   1.084       .  S
C1442      C1443   1.392       .  A
C1443      C1444   1.411       .  A
C1443      H1453   1.083       .  S
C1444      C1445   1.411       .  A
C1445      H1454   1.084       .  S
C1446      C1447   1.411       .  A
C1446      H1455   1.084       .  S
C1447      C1448   1.402       .  A
C1448      H1456   1.086       .  S
C1457      C1458   1.395       .  A
C1457      C1462   1.401       .  A
C1457      H1473   1.084       .  S
C1458      C1459   1.403       .  A
C1458      H1474   1.084       .  S
C1459      C1469   1.394       .  A
C1459      C1460   1.408       .  A
C1460      C1466   1.415       .  A
C1460      C1461   1.411       .  A
C1461      C1463   1.411   1_455  A
C1461      C1462   1.414       .  A
C1462      C1470   1.400   1_455  A
C1463      C1472   1.405       .  A
C1463      C1464   1.405   1_655  A
C1464      C1465   1.402       .  A
C1464      H1475   1.083   1_455  S
C1465      C1466   1.404       .  A
C1465      H1476   1.083       .  S
C1466      C1467   1.410       .  A
C1467      C1468   1.407       .  A
C1467      H1477   1.084       .  S
C1468      C1469   1.407       .  A
C1469      H1478   1.083       .  S
C1470      C1471   1.399       .  A
C1470      H1479   1.085       .  S
C1471      C1472   1.406       .  A
C1472      H1480   1.084       .  S
C1481      C1482   1.406       .  A
C1481      C1486   1.407       .  A
C1481      H1497   1.083       .  S
C1482      C1483   1.406       .  A
C1482      H1498   1.083       .  S
C1483      C1493   1.416       .  A
C1483      C1484   1.416       .  A
C1484      C1490   1.407       .  A
C1484      C1485   1.411       .  A
C1485      C1487   1.413       .  A
C1485      C1486   1.412       .  A
C1486      C1494   1.411       .  A
C1487      C1496   1.394       .  A
C1487      C1488   1.400       .  A
C1488      C1489   1.391       .  A
C1488      H1499   1.084       .  S
C1489      C1490   1.402       .  A
C1489      H1500   1.084       .  S
C1490      C1491   1.388       .  A
C1491      C1492   1.407       .  A
C1491      H1501   1.084       .  S
C1492      C1493   1.408       .  A
C1493      H1502   1.084       .  S
C1494      C1495   1.408       .  A
C1494      H1503   1.084       .  S
C1495      C1496   1.399       .  A
C1496      H1504   1.085       .  S
