geometry optimzed in LAMMPS
_audit_creation_date              2020-12-01 
_audit_creation_method            'lammps2cif' 
_symmetry_space_group_name_H-M    'P1' 
_symmetry_Int_Tables_number       1 
_symmetry_cell_setting            triclinic 
loop_ 
_symmetry_equiv_pos_as_xyz 
  x,y,z 
_cell_length_a                    29.25949387 
_cell_length_b                    29.194820397265204 
_cell_length_c                    84.77594854909131 
_cell_angle_alpha                 90.38577124291689 
_cell_angle_beta                  90.10389223827225 
_cell_angle_gamma                 119.79904116982608 
loop_ 
_atom_site_label 
_atom_site_type_symbol 
_atom_site_fract_x 
_atom_site_fract_y 
_atom_site_fract_z 
_atom_site_charge 
O1          O  0.86998958  0.17591750  0.61665866    -0.81400
O2          O  0.90935123  0.19085625  0.54601360    -0.66100
O3          O  0.91276565  0.22851336  0.58926952    -1.12700
C4          C  0.73940098  0.19639403  0.57813170     1.05500
O5          O  0.87917899  0.24405670  0.53927158    -0.79300
O6          O  0.84638201  0.29142863  0.55998276    -0.66900
Ni7        Ni  0.93333481  0.19739034  0.60524564     1.34900
C8          C  0.86450335  0.31419245  0.57317374     0.84200
O9          O  0.98249439  0.21869098  0.56852512    -0.79900
O10         O  0.99764802  0.21646051  0.59451674    -0.90100
C11         C  0.90676617  0.22228433  0.53627206     0.83800
O12         O  0.90082522  0.12752780  0.59713561    -0.68300
O13         O  0.75262211  0.19999762  0.56360233    -0.87600
C14         C  0.88088889  0.10614787  0.58397286     0.84600
C15         C  0.01193353  0.22180097  0.58011427     1.06200
H16         H  0.81700659  0.15693682  0.56830226     0.38000
O17         O  0.84088855  0.19459065  0.56853786    -1.10300
O18         O  0.86709343  0.29027387  0.58537845    -0.66900
Ni19       Ni  0.84220162  0.21666928  0.58993494     1.26300
O20         O  0.88354558  0.13240277  0.57177174    -0.67200
O21         O  0.77070949  0.20335161  0.58961415    -0.79500
C22         C  0.85741535  0.20876614  0.62183608     0.84000
O23         O  0.84723833  0.23544184  0.61205373    -0.66600
Ni24       Ni  0.81698450  0.22115460  0.55216767     1.27400
Ni25       Ni  0.91156988  0.20689526  0.56795995     1.26100
H26         H  0.93692205  0.26599086  0.58986417     0.38500
O27         O  0.18035031  0.30656377  0.38834659    -0.81400
O28         O  0.11269133  0.26712855  0.45477832    -0.66100
O29         O  0.12976448  0.31868478  0.41301138    -1.12700
C30         C  0.29662709  0.45074508  0.43160697     1.05500
O31         O  0.13883007  0.34716856  0.46440290    -0.79300
O32         O  0.17321667  0.42941993  0.44470581    -0.66900
Ni33       Ni  0.10999108  0.27146902  0.39572911     1.34900
C34         C  0.17065654  0.44301528  0.43069820     0.84200
O35         O  0.04933292  0.23383340  0.42945420    -0.79900
O36         O  0.03911053  0.23357139  0.40309782    -0.90100
C37         C  0.11154856  0.29701524  0.46546707     0.83800
O38         O  0.12453259  0.21996443  0.40410067    -0.68300
O39         O  0.27244772  0.44172834  0.44481035    -0.87600
C40         C  0.14538091  0.21768242  0.41693994     0.84600
C41         C  0.02142197  0.21654264  0.41686464     1.06200
H42         H  0.21376351  0.33098659  0.43818720     0.38000
O43         O  0.19127173  0.34600326  0.43653305    -1.10300
O44         O  0.18264359  0.42497994  0.41864080    -0.66900
Ni45       Ni  0.20263827  0.37175243  0.41532120     1.26300
O46         O  0.14822237  0.24456051  0.42906636    -0.67200
O47         O  0.27509385  0.42461991  0.41895777    -0.79500
C48         C  0.19983813  0.35295534  0.38326465     0.84000
O49         O  0.21055799  0.39011756  0.39313106    -0.66600
Ni50       Ni  0.20487101  0.39259081  0.45370720     1.27400
Ni51       Ni  0.12029790  0.29034897  0.43352153     1.26100
H52         H  0.10890947  0.33586198  0.41225490     0.38500
O53         O  0.15844524  0.84988013  0.38454338    -0.81400
O54         O  0.16512000  0.87519402  0.45474291    -0.66100
O55         O  0.21163465  0.88742295  0.41253635    -1.12700
C56         C  0.18374978  0.71628216  0.42193104     1.05500
O57         O  0.22431409  0.85363428  0.46208297    -0.79300
O58         O  0.27709153  0.82893730  0.44100573    -0.66900
Ni59       Ni  0.18506816  0.91307719  0.39674775     1.34900
C60         C  0.29847611  0.84433866  0.42762901     0.84200
O61         O  0.19474490  0.95207154  0.43381898    -0.79900
O62         O  0.20894305  0.97695345  0.40843930    -0.90100
C63         C  0.19823787  0.87722495  0.46472311     0.83800
O64         O  0.11540043  0.88622628  0.40421343    -0.68300
O65         O  0.19152397  0.73104460  0.43642357    -0.87600
C66         C  0.09048640  0.85781173  0.41583007     0.84600
C67         C  0.20519523  0.98599335  0.42299223     1.06200
H68         H  0.14008709  0.78803071  0.43250506     0.38000
O69         O  0.17727466  0.81347548  0.43225265    -1.10300
O70         O  0.27266940  0.84117463  0.41512230    -0.66900
Ni71       Ni  0.19876642  0.81668964  0.41082317     1.26300
O72         O  0.11309125  0.85176096  0.42775744    -0.67200
O73         O  0.18513823  0.74531949  0.41050644    -0.79500
C74         C  0.18726461  0.83269739  0.37909386     0.84000
O75         O  0.21487593  0.82227459  0.38852124    -0.66600
Ni76       Ni  0.20703565  0.79306101  0.44854476     1.27400
Ni77       Ni  0.18626841  0.88236474  0.43339919     1.26100
H78         H  0.24925216  0.91118266  0.41289337     0.38500
O79         O  0.31264046  0.17900824  0.61029437    -0.81400
O80         O  0.28752467  0.09238460  0.54252646    -0.66100
O81         O  0.32027422  0.11958203  0.58631419    -1.12700
C82         C  0.45467094  0.28600288  0.56699422     1.05500
O83         O  0.37117103  0.12168184  0.53695325    -0.79300
O84         O  0.45205003  0.17604646  0.55679596    -0.66900
Ni85       Ni  0.26764930  0.11178649  0.60085880     1.34900
C86         C  0.45648711  0.16388451  0.57082409     0.84200
O87         O  0.24411448  0.03445241  0.56812955    -0.79900
O88         O  0.21811840  0.04408788  0.59223866    -0.90100
C89         C  0.32247672  0.09144026  0.53396604     0.83800
O90         O  0.23855214  0.14557066  0.58882498    -0.68300
O91         O  0.44288274  0.26357665  0.55342301    -0.87600
C92         C  0.23120980  0.14724029  0.57417990     0.84600
C93         C  0.21184138  0.01738765  0.57962054     1.06200
H94         H  0.34013133  0.19806348  0.55996173     0.38000
O95         O  0.35585716  0.17649315  0.56211949    -1.10300
O96         O  0.42779276  0.16393541  0.58214027    -0.66900
Ni97       Ni  0.37838179  0.19003576  0.58368965     1.26300
O98         O  0.24997680  0.12952882  0.56386218    -0.67200
O99         O  0.43515374  0.26145621  0.57993397    -0.79500
C100        C  0.35780023  0.19211699  0.61567587     0.84000
O101        O  0.39410578  0.19893115  0.60608460    -0.66600
Ni102      Ni  0.40529286  0.19220774  0.54585012     1.27400
Ni103      Ni  0.30056372  0.10518811  0.56458358     1.26100
H104        H  0.33354727  0.09667771  0.58965340     0.38500
O105        O  0.72025941  0.87060990  0.38344127    -0.81400
O106        O  0.72706485  0.82228586  0.45336388    -0.66100
O107        O  0.70225758  0.80623173  0.40899392    -1.12700
C108        C  0.56527396  0.84353578  0.42149152     1.05500
O109        O  0.64242815  0.77244687  0.45854639    -0.79300
O110        O  0.56788254  0.73938563  0.43611906    -0.66900
Ni111      Ni  0.75819007  0.84342565  0.39460156     1.34900
C112        C  0.56503677  0.72026086  0.42242983     0.84200
O113        O  0.77186435  0.79826428  0.42994476    -0.79900
O114        O  0.80013099  0.81879557  0.40493147    -0.90100
C115        C  0.69058568  0.78926184  0.46206888     0.83800
O116        O  0.79340983  0.90935043  0.40542838    -0.68300
O117        O  0.57231877  0.83469967  0.43581293    -0.87600
C118        C  0.79525202  0.92288698  0.41973449     0.84600
C119        C  0.80277518  0.80281427  0.41871930     1.06200
H120        H  0.67946434  0.87258109  0.43256447     0.38000
O121        O  0.66331421  0.83488624  0.43100384    -1.10300
O122        O  0.59446496  0.74732258  0.41103401    -0.66900
Ni123      Ni  0.64618374  0.82205488  0.40895404     1.26300
O124        O  0.76932414  0.89043489  0.43053840    -0.67200
O125        O  0.59049337  0.83897974  0.40984731    -0.79500
C126        C  0.67539466  0.84131604  0.37734696     0.84000
O127        O  0.63654763  0.81287157  0.38628520    -0.66600
Ni128      Ni  0.60984276  0.80510633  0.44642304     1.27400
Ni129      Ni  0.71739677  0.81634366  0.43101709     1.26100
H130        H  0.68777857  0.76899784  0.40667517     0.38500
O131        O  0.84601540  0.72236831  0.61566776    -0.81400
O132        O  0.83717380  0.73599639  0.54559651    -0.66100
O133        O  0.79241042  0.70064445  0.58783125    -1.12700
C134        C  0.83504203  0.56665389  0.57766589     1.05500
O135        O  0.77882194  0.65424396  0.53854781    -0.79300
O136        O  0.73157788  0.57387120  0.56000826    -0.66900
Ni137      Ni  0.81401485  0.75350638  0.60352711     1.34900
C138        C  0.71367530  0.56556803  0.57399034     0.84200
O139        O  0.80637402  0.78208060  0.56693247    -0.79900
O140        O  0.78489993  0.78886120  0.59186893    -0.90100
C141        C  0.80404935  0.70387033  0.53568463     0.83800
O142        O  0.88233749  0.80117571  0.59588292    -0.68300
O143        O  0.82308482  0.57055803  0.56331541    -0.87600
C144        C  0.91009784  0.79960911  0.58465086     0.84600
C145        C  0.79388157  0.80477810  0.57763864     1.06200
H146        H  0.86804205  0.67867609  0.56701551     0.38000
O147        O  0.83051046  0.66489221  0.56777072    -1.10300
O148        O  0.74088456  0.59199309  0.58589664    -0.66900
Ni149      Ni  0.81272479  0.64749232  0.58932907     1.26300
O150        O  0.89029474  0.76810206  0.57296303    -0.67200
O151        O  0.83376616  0.59484575  0.58912959    -0.79500
C152        C  0.82126388  0.67624259  0.62116700     0.84000
O153        O  0.79871873  0.63678202  0.61177639    -0.66600
Ni154      Ni  0.80109385  0.61345182  0.55164773     1.27400
Ni155      Ni  0.81734485  0.72218403  0.56702808     1.26100
H156        H  0.75444383  0.68333641  0.58739408     0.38500
O157        O  0.05434499  0.54033479  0.05819892    -0.81400
O158        O  0.05064605  0.48664021  0.12857438    -0.66100
O159        O  0.03348925  0.47539608  0.08399922    -1.12700
C160        C  0.88923338  0.50098891  0.09651469     1.05500
O161        O  0.96770755  0.42448126  0.13120128    -0.79300
O162        O  0.89551852  0.39215357  0.10765034    -0.66900
Ni163      Ni  0.09123316  0.51360934  0.07023429     1.34900
C164        C  0.89557770  0.38162472  0.09311046     0.84200
O165        O  0.10351221  0.47077317  0.10603763    -0.79900
O166        O  0.13316269  0.48990105  0.08116686    -0.90100
C167        C  0.01534129  0.44771569  0.13604162     0.83800
O168        O  0.12348755  0.57862239  0.08154572    -0.68300
O169        O  0.89190998  0.48376188  0.11014612    -0.87600
C170        C  0.12238368  0.59195519  0.09573521     0.84600
C171        C  0.13570707  0.47589977  0.09522454     1.06200
H172        H  0.00048887  0.53257562  0.10882990     0.38000
O173        O  0.98785637  0.49612201  0.10602200    -1.10300
O174        O  0.92598245  0.41521543  0.08315990    -0.66900
Ni175      Ni  0.97603766  0.48965437  0.08376191     1.26300
O176        O  0.09434127  0.55923555  0.10632723    -0.67200
O177        O  0.91853629  0.50429242  0.08485393    -0.79500
C178        C  0.00885957  0.51229792  0.05228369     0.84000
O179        O  0.96973571  0.48510249  0.06116342    -0.66600
Ni180      Ni  0.93159997  0.45529827  0.11997964     1.27400
Ni181      Ni  0.04553280  0.48355150  0.10623625     1.26100
H182        H  0.01981873  0.43832582  0.08150142     0.38500
O183        O  0.20874886  0.38229152  0.28420970    -0.81400
O184        O  0.18262846  0.40563369  0.21595863    -0.66100
O185        O  0.14822687  0.36093440  0.25815472    -1.12700
C186        C  0.19996976  0.23732616  0.24205189     1.05500
O187        O  0.12801487  0.32354460  0.20824429    -0.79300
O188        O  0.09018097  0.24089573  0.22832567    -0.66900
Ni189      Ni  0.16911470  0.41053854  0.27476965     1.34900
C190        C  0.07379672  0.22967186  0.24240428     0.84200
O191        O  0.15087671  0.44276519  0.23979720    -0.79900
O192        O  0.13223999  0.44261914  0.26548663    -0.90100
C193        C  0.14931419  0.37327118  0.20612599     0.83800
O194        O  0.23339029  0.46434737  0.26644535    -0.68300
O195        O  0.18482288  0.24378281  0.22844869    -0.87600
C196        C  0.26029063  0.46624159  0.25453420     0.84600
C197        C  0.13688854  0.46059169  0.25152877     1.06200
H198        H  0.22414031  0.35010047  0.23436427     0.38000
O199        O  0.18650342  0.33348352  0.23584708    -1.10300
O200        O  0.10217942  0.25385895  0.25437919    -0.66900
Ni201      Ni  0.17352575  0.31128412  0.25725997     1.26300
O202        O  0.24041085  0.43601800  0.24259379    -0.67200
O203        O  0.19864822  0.26145492  0.25463487    -0.79500
C204        C  0.18707033  0.33569650  0.28935209     0.84000
O205        O  0.16448542  0.29699698  0.27967164    -0.66600
Ni206      Ni  0.15701500  0.28486359  0.21907480     1.27400
Ni207      Ni  0.16770739  0.38696509  0.23745089     1.26100
H208        H  0.11020035  0.34134919  0.25837979     0.38500
O209        O  0.65726222  0.85398401  0.27753541    -0.81400
O210        O  0.62751593  0.77368445  0.21040908    -0.66100
O211        O  0.66563811  0.79519405  0.25384749    -1.12700
C212        C  0.80902669  0.95394627  0.23509075     1.05500
O213        O  0.70695010  0.79003655  0.20362731    -0.79300
O214        O  0.78558075  0.82694508  0.22567548    -0.66900
Ni215      Ni  0.61438525  0.78479551  0.26930272     1.34900
C216        C  0.79489828  0.82658266  0.24029821     0.84200
O217        O  0.58408036  0.71533033  0.23564988    -0.79900
O218        O  0.56781328  0.71517279  0.26156869    -0.90100
C219        C  0.65755112  0.76809042  0.20087103     0.83800
O220        O  0.57694386  0.81180365  0.25808005    -0.68300
O221        O  0.80140684  0.92697733  0.22238156    -0.87600
C222        C  0.57536100  0.82317982  0.24378350     0.84600
C223        C  0.55688416  0.69360708  0.24790333     1.06200
H224        H  0.69148620  0.87616524  0.22656259     0.38000
O225        O  0.70342316  0.85190012  0.22957105    -1.10300
O226        O  0.77302993  0.83976789  0.25094731    -0.66900
Ni227      Ni  0.72396949  0.86552239  0.25140353     1.26300
O228        O  0.60029948  0.81511707  0.23294016    -0.67200
O229        O  0.78136036  0.93558325  0.24756462    -0.79500
C230        C  0.70174375  0.86686569  0.28333512     0.84000
O231        O  0.73889847  0.87519860  0.27393189    -0.66600
Ni232      Ni  0.75252441  0.85804470  0.21397905     1.27400
Ni233      Ni  0.64419316  0.78352402  0.23226755     1.26100
H234        H  0.67901436  0.77173565  0.25640769     0.38500
O235        O  0.46857878  0.50572002  0.04968345    -0.81400
O236        O  0.52433734  0.56591148  0.11950229    -0.66100
O237        O  0.53503498  0.55467940  0.07490066    -1.12700
C238        C  0.50613041  0.38383363  0.08778131     1.05500
O239        O  0.57978646  0.53627471  0.12325531    -0.79300
O240        O  0.61068165  0.49250635  0.10076903    -0.66900
Ni241      Ni  0.49584244  0.57148276  0.06060599     1.34900
C242        C  0.62598919  0.50665309  0.08674255     0.84200
O243        O  0.54016173  0.63206958  0.09596638    -0.79900
O244        O  0.51963854  0.63811201  0.07077285    -0.90100
C245        C  0.56027524  0.56476429  0.12762533     0.83800
O246        O  0.43179740  0.53993547  0.07176159    -0.68300
O247        O  0.51694328  0.40134136  0.10196943    -0.87600
C248        C  0.41833239  0.52504455  0.08579731     0.84600
C249        C  0.53493239  0.65747968  0.08458187     1.06200
H250        H  0.47548886  0.46664716  0.09903696     0.38000
O251        O  0.51238204  0.48943852  0.09703413    -1.10300
O252        O  0.59636380  0.50791008  0.07591768    -0.66900
Ni253      Ni  0.52156747  0.48343913  0.07492344     1.26300
O254        O  0.45119840  0.53347592  0.09683083    -0.67200
O255        O  0.50749628  0.41173216  0.07602593    -0.79500
C256        C  0.49760477  0.48998433  0.04351976     0.84000
O257        O  0.52757227  0.48099594  0.05229440    -0.66600
Ni258      Ni  0.54693385  0.46950529  0.11197026     1.27400
Ni259      Ni  0.52672475  0.56077530  0.09702061     1.26100
H260        H  0.57201605  0.57804955  0.07246076     0.38500
O261        O  0.49270570  0.97244833  0.05106228    -0.81400
O262        O  0.45551318  0.94252451  0.12080281    -0.66100
O263        O  0.45541420  0.98734896  0.07882407    -1.12700
C264        C  0.63182678  0.11422196  0.09271177     1.05500
O265        O  0.48331596  0.02443187  0.12890233    -0.79300
O266        O  0.52155664  0.10773566  0.10957768    -0.66900
Ni267      Ni  0.42754206  0.93802437  0.06201604     1.34900
C268        C  0.50893046  0.11698020  0.09612941     0.84200
O269        O  0.38194072  0.90423351  0.09810143    -0.79900
O270        O  0.36102662  0.89969473  0.07239119    -0.90100
C271        C  0.45735464  0.97480781  0.13120355     0.83800
O272        O  0.44829066  0.88953338  0.06900674    -0.68300
O273        O  0.61401894  0.10593022  0.10680337    -0.87600
C274        C  0.47360238  0.88806521  0.08094297     0.84600
C275        C  0.34923467  0.88436779  0.08662344     1.06200
H276        H  0.54801386  0.00105619  0.10034490     0.38000
O277        O  0.52559038  0.01662177  0.09993325    -1.10300
O278        O  0.51075273  0.09405048  0.08350120    -0.66900
Ni279      Ni  0.52907970  0.04025216  0.07879648     1.26300
O280        O  0.47959330  0.91469776  0.09343056    -0.67200
O281        O  0.60331114  0.09249519  0.08039210    -0.79500
C282        C  0.51287677  0.01950242  0.04641193     0.84000
O283        O  0.52873608  0.05675001  0.05662344    -0.66600
Ni284      Ni  0.54780736  0.06405795  0.11712575     1.27400
Ni285      Ni  0.45405291  0.96145701  0.09943758     1.26100
H286        H  0.43483894  0.00489881  0.07913613     0.38500
O287        O  0.18328476  0.80393735  0.27925526    -0.81400
O288        O  0.25770319  0.86426135  0.21186375    -0.66100
O289        O  0.23683374  0.87360102  0.25578646    -1.12700
C290        C  0.07042461  0.84461200  0.23808648     1.05500
O291        O  0.23260945  0.92286694  0.20720230    -0.79300
O292        O  0.18750117  0.95505428  0.22892399    -0.66900
Ni293      Ni  0.25227613  0.83509167  0.27070136     1.34900
C294        C  0.19513378  0.96665343  0.24350967     0.84200
O295        O  0.31884187  0.88016402  0.23694541    -0.79900
O296        O  0.32224453  0.86412896  0.26276423    -0.90100
C297        C  0.25913269  0.90064480  0.20343323     0.83800
O298        O  0.22879806  0.77172106  0.25892775    -0.68300
O299        O  0.09371406  0.86272963  0.22495549    -0.87600
C300        C  0.21635984  0.75845471  0.24463390     0.84600
C301        C  0.34326184  0.87835759  0.24919685     1.06200
H302        H  0.15521867  0.81597536  0.22894047     0.38000
O303        O  0.17745122  0.85257767  0.23192440    -1.10300
O304        O  0.18859089  0.93309379  0.25404619    -0.66900
Ni305      Ni  0.16524070  0.85832274  0.25383601     1.26300
O306        O  0.22185985  0.79111402  0.23392865    -0.67200
O307        O  0.09355799  0.84216374  0.25061046    -0.79500
C308        C  0.16630932  0.83224882  0.28526622     0.84000
O309        O  0.15653808  0.86117697  0.27632815    -0.66600
Ni310      Ni  0.16382674  0.89186232  0.21685262     1.27400
Ni311      Ni  0.24807887  0.86650000  0.23400540     1.26100
H312        H  0.25868562  0.91043064  0.25858149     0.38500
O313        O  0.84029477  0.66949507  0.72027276    -0.81400
O314        O  0.78008828  0.63944701  0.78763338    -0.66100
O315        O  0.79248738  0.68327525  0.74509371    -1.12700
C316        C  0.96763680  0.80977106  0.76124620     1.05500
O317        O  0.81451245  0.72262738  0.79552293    -0.79300
O318        O  0.86057944  0.80614481  0.77676164    -0.66900
Ni319      Ni  0.77088274  0.63404288  0.72834445     1.34900
C320        C  0.84721608  0.81534494  0.76343092     0.84200
O321        O  0.71367737  0.60091981  0.76291436    -0.79900
O322        O  0.70116213  0.59589577  0.73654628    -0.90100
C323        C  0.78183150  0.67368905  0.79730971     0.83800
O324        O  0.78784652  0.58461030  0.73685676    -0.68300
O325        O  0.94922748  0.79813937  0.77523762    -0.87600
C326        C  0.80985393  0.58340815  0.74957245     0.84600
C327        C  0.68495191  0.58080568  0.75055628     1.06200
H328        H  0.87955529  0.69564215  0.76803431     0.38000
O329        O  0.85809548  0.71216119  0.76742159    -1.10300
O330        O  0.84615839  0.79072621  0.75075982    -0.66900
Ni331      Ni  0.86569471  0.73710489  0.74628491     1.26300
O332        O  0.81175317  0.60969865  0.76178132    -0.67200
O333        O  0.93949583  0.79015420  0.74874365    -0.79500
C334        C  0.85664006  0.71451766  0.71447884     0.84000
O335        O  0.86871280  0.75321814  0.72393172    -0.66600
Ni336      Ni  0.88110752  0.75865908  0.78474691     1.27400
Ni337      Ni  0.78566449  0.65761573  0.76587346     1.26100
H338        H  0.77143831  0.70036921  0.74435200     0.38500
O339        O  0.52971472  0.50395888  0.94526764    -0.81400
O340        O  0.56851194  0.52609373  0.87670685    -0.66100
O341        O  0.56644770  0.56569009  0.91919293    -1.12700
C342        C  0.39752687  0.53007241  0.90439100     1.05500
O343        O  0.55233408  0.58992955  0.87010282    -0.79300
O344        O  0.52250516  0.63776436  0.89255465    -0.66900
Ni345      Ni  0.59596778  0.54289376  0.93499350     1.34900
C346        C  0.51943249  0.64859773  0.90692609     0.84200
O347        O  0.63892840  0.55403184  0.89986012    -0.79900
O348        O  0.66350344  0.57835271  0.92493058    -0.90100
C349        C  0.57213628  0.56048137  0.86696442     0.83800
O350        O  0.58224061  0.47781985  0.92580977    -0.68300
O351        O  0.42234776  0.55276999  0.89175985    -0.87600
C352        C  0.54894447  0.45023677  0.91528169     0.84600
C353        C  0.67331303  0.56993551  0.91087016     1.06200
H354        H  0.47582190  0.49576706  0.89451115     0.38000
O355        O  0.49977647  0.53243618  0.89702824    -1.10300
O356        O  0.50677772  0.61477235  0.91784862    -0.66900
Ni357      Ni  0.49228678  0.54262522  0.91882021     1.26300
O358        O  0.53809421  0.47062570  0.90370686    -0.67200
O359        O  0.41869910  0.52044468  0.91627197    -0.79500
C360        C  0.50209090  0.52282101  0.95057478     0.84000
O361        O  0.48723544  0.54767609  0.94147432    -0.66600
Ni362      Ni  0.48811499  0.57137895  0.88171054     1.27400
Ni363      Ni  0.56899894  0.54402992  0.89824634     1.26100
H364        H  0.58595843  0.60382711  0.91945105     0.38500
O365        O  0.39186899  0.22387733  0.71529437    -0.81400
O366        O  0.39938784  0.18345970  0.78665580    -0.66100
O367        O  0.37543384  0.16444227  0.74225598    -1.12700
C368        C  0.23606181  0.19934261  0.75417173     1.05500
O369        O  0.31495736  0.13099999  0.79152208    -0.79300
O370        O  0.23914538  0.09500489  0.76898832    -0.66900
Ni371      Ni  0.43189253  0.20239112  0.72795559     1.34900
C372        C  0.23667605  0.07760928  0.75505540     0.84200
O373        O  0.44603054  0.15953154  0.76390132    -0.79900
O374        O  0.47715996  0.18412843  0.73937691    -0.90100
C375        C  0.36324008  0.15038114  0.79543016     0.83800
O376        O  0.46212964  0.26956890  0.73814599    -0.68300
O377        O  0.24251375  0.19001897  0.76848964    -0.87600
C378        C  0.46555523  0.28291675  0.75254059     0.84600
C379        C  0.47982365  0.16837766  0.75317757     1.06200
H380        H  0.35042227  0.23058315  0.76550987     0.38000
O381        O  0.33505285  0.19296554  0.76396175    -1.10300
O382        O  0.26725487  0.10537552  0.74402192    -0.66900
Ni383      Ni  0.31856783  0.17949149  0.74194317     1.26300
O384        O  0.44158208  0.25014944  0.76348290    -0.67200
O385        O  0.26210635  0.19568167  0.74258411    -0.79500
C386        C  0.34603674  0.19341092  0.70996114     0.84000
O387        O  0.30816844  0.16785577  0.71945111    -0.66600
Ni388      Ni  0.28089856  0.16162286  0.77921721     1.27400
Ni389      Ni  0.39021189  0.17590257  0.76434198     1.26100
H390        H  0.36156333  0.12728351  0.74008657     0.38500
O391        O  0.53186810  0.05989010  0.94731573    -0.81400
O392        O  0.51199458  0.09489671  0.87834837    -0.66100
O393        O  0.47521877  0.04940086  0.92071910    -1.12700
C394        C  0.51028196  0.91492191  0.90367126     1.05500
O395        O  0.45401886  0.01494100  0.86999004    -0.79300
O396        O  0.40819020  0.93178450  0.88956772    -0.66900
Ni397      Ni  0.50305054  0.09859128  0.93765569     1.34900
C398        C  0.39056951  0.92137854  0.90352311     0.84200
O399        O  0.48200590  0.13220959  0.90232399    -0.79900
O400        O  0.47734610  0.14139716  0.92851605    -0.90100
C401        C  0.47940185  0.06477648  0.86801954     0.83800
O402        O  0.57151209  0.14313833  0.92978451    -0.68300
O403        O  0.49775983  0.92443122  0.89008803    -0.87600
C404        C  0.59396959  0.14516152  0.91687156     0.84600
C405        C  0.47505712  0.15451581  0.91431628     1.06200
H406        H  0.54632974  0.03172320  0.89679745     0.38000
O407        O  0.50892295  0.01784885  0.89805864    -1.10300
O408        O  0.41901827  0.94249340  0.91572919    -0.66900
Ni409      Ni  0.49229953  0.99378814  0.91937590     1.26300
O410        O  0.56928306  0.12045280  0.90449116    -0.67200
O411        O  0.51001446  0.93870900  0.91643276    -0.79500
C412        C  0.50344856  0.01310723  0.95193074     0.84000
O413        O  0.47901003  0.97661634  0.94167240    -0.66600
Ni414      Ni  0.47668953  0.97105965  0.88086823     1.27400
Ni415      Ni  0.49548860  0.07488961  0.89984678     1.26100
H416        H  0.43743121  0.03372186  0.92125641     0.38500
O417        O  0.97899501  0.51956313  0.95337676    -0.81400
O418        O  0.96436126  0.47326678  0.88182304    -0.66100
O419        O  0.99097442  0.47639914  0.92601027    -1.12700
C420        C  0.13020886  0.64928486  0.91369687     1.05500
O421        O  0.04814768  0.50043415  0.87733863    -0.79300
O422        O  0.12676718  0.54530982  0.89872058    -0.66900
Ni423      Ni  0.93684162  0.45763796  0.94107197     1.34900
C424        C  0.12838618  0.52672506  0.91207107     0.84200
O425        O  0.91675563  0.40423638  0.90446949    -0.79900
O426        O  0.88951887  0.39445651  0.92963742    -0.90100
C427        C  0.99976830  0.47216120  0.87347028     0.83800
O428        O  0.90713261  0.49575172  0.93202197    -0.68300
O429        O  0.11993663  0.63436505  0.89925881    -0.87600
C430        C  0.90512683  0.51108859  0.91825604     0.84600
C431        C  0.88462032  0.37836267  0.91536806     1.06200
H432        H  0.01646324  0.56884795  0.90374185     0.38000
O433        O  0.03073832  0.54540457  0.90470568    -1.10300
O434        O  0.09743164  0.52140083  0.92328714    -0.66900
Ni435      Ni  0.04921889  0.54745776  0.92639241     1.26300
O436        O  0.92601161  0.50203049  0.90633284    -0.67200
O437        O  0.10735294  0.61909978  0.92546337    -0.79500
C438        C  0.02467628  0.53332105  0.95844175     0.84000
O439        O  0.06194911  0.54561680  0.94869640    -0.66600
Ni440      Ni  0.08231366  0.56695460  0.88887287     1.27400
Ni441      Ni  0.97415057  0.47464312  0.90416896     1.26100
H442        H  0.00429458  0.45226839  0.92745898     0.38500
O443        O  0.83930805  0.22375257  0.72094982    -0.81400
O444        O  0.85361870  0.26550991  0.79035627    -0.66100
O445        O  0.89538747  0.26512457  0.74806663    -1.12700
C446        C  0.86361061  0.09453085  0.76069548     1.05500
O447        O  0.91046137  0.24157647  0.79860831    -0.79300
O448        O  0.96195351  0.21309793  0.77753787    -0.66900
Ni449      Ni  0.86980301  0.28986989  0.73164397     1.34900
C450        C  0.97977398  0.22050531  0.76357086     0.84200
O451        O  0.88344630  0.33678816  0.76758671    -0.79900
O452        O  0.89779094  0.35687399  0.74187000    -0.90100
C453        C  0.88551281  0.26680740  0.80072053     0.83800
O454        O  0.80133925  0.26836530  0.73945358    -0.68300
O455        O  0.87590342  0.11318816  0.77480938    -0.87600
C456        C  0.77629794  0.24214934  0.75140386     0.84600
C457        C  0.89411902  0.36870901  0.75614475     1.06200
H458        H  0.82309612  0.17173695  0.77041539     0.38000
O459        O  0.86043416  0.19591450  0.76940362    -1.10300
O460        O  0.95122275  0.21306481  0.75139754    -0.66900
Ni461      Ni  0.87808574  0.19264986  0.74788113     1.26300
O462        O  0.79887418  0.23679893  0.76349767    -0.67200
O463        O  0.86042502  0.12040955  0.74905807    -0.79500
C464        C  0.86717205  0.20509080  0.71582652     0.84000
O465        O  0.89185350  0.19211403  0.72557179    -0.66600
Ni466      Ni  0.89244120  0.17838802  0.78587372     1.27400
Ni467      Ni  0.87239575  0.26621505  0.76889282     1.26100
H468        H  0.93327926  0.28708630  0.74804330     0.38500
C469        C  0.98530551  0.43450252  0.85991815    -0.05800
C470        C  0.02212973  0.42065041  0.85430121    -0.05700
C471        C  0.00919833  0.38384268  0.84205628    -0.23900
C472        C  0.95931722  0.36044611  0.83492038     0.18400
C473        C  0.92206489  0.37449801  0.84019971     0.15600
C474        C  0.93497933  0.41086889  0.85280955    -0.18900
C475        C  0.87277577  0.35222811  0.83264941    -0.20700
C476        C  0.86075213  0.31687636  0.81996521    -0.13300
C477        C  0.89720059  0.30193992  0.81478078     0.03400
C478        C  0.94642370  0.32379351  0.82245435    -0.25400
H479        H  0.06098146  0.43769126  0.85957938     0.08500
H480        H  0.03838322  0.37380223  0.83813234     0.12100
H481        H  0.90617100  0.42113209  0.85696129     0.12000
H482        H  0.84374031  0.36267581  0.83641466     0.11800
H483        H  0.82276637  0.30110127  0.81419485     0.12300
H484        H  0.97536338  0.31355677  0.81840486     0.14300
C485        C  0.17317861  0.70399374  0.91656552    -0.05800
C486        C  0.20561276  0.71676700  0.92999494    -0.05700
C487        C  0.25277094  0.76506287  0.93098792    -0.23900
C488        C  0.26817022  0.80122241  0.91855325     0.18400
C489        C  0.23409470  0.78986124  0.90546087     0.15600
C490        C  0.18674423  0.74176788  0.90464664    -0.18900
C491        C  0.24930763  0.82528947  0.89290673    -0.20700
C492        C  0.29927123  0.86991873  0.89280536    -0.13300
C493        C  0.33470609  0.88043459  0.90535497     0.03400
C494        C  0.31815175  0.84695006  0.91852125    -0.25400
H495        H  0.19612494  0.68819744  0.93928877     0.08500
H496        H  0.27826974  0.77307707  0.94114218     0.12100
H497        H  0.16182339  0.73249972  0.89427526     0.12000
H498        H  0.22349555  0.81726634  0.88282744     0.11800
H499        H  0.31098882  0.89528609  0.88258774     0.12300
H500        H  0.34535382  0.85439803  0.92818719     0.14300
C501        C  0.83660116  0.32913912  0.91108709    -0.05800
C502        C  0.81087800  0.32583097  0.89675214    -0.05700
C503        C  0.75910793  0.28550787  0.89416828    -0.23900
C504        C  0.73251156  0.24794473  0.90588368     0.18400
C505        C  0.75968334  0.24911348  0.91986675     0.15600
C506        C  0.81161161  0.28943778  0.92231555    -0.18900
C507        C  0.73339695  0.21211991  0.93168030    -0.20700
C508        C  0.67970751  0.17681424  0.93021115    -0.13300
C509        C  0.65165045  0.17724828  0.91679909     0.03400
C510        C  0.67853600  0.21131128  0.90432545    -0.25400
H511        H  0.82946265  0.35649795  0.88800216     0.08500
H512        H  0.73909224  0.28527370  0.88337622     0.12100
H513        H  0.83143666  0.29185556  0.93337402     0.12000
H514        H  0.75375834  0.21209000  0.94236929     0.11800
H515        H  0.65957675  0.15000202  0.93981364     0.12300
H516        H  0.65690648  0.21168264  0.89397348     0.14300
C517        C  0.19438147  0.21310002  0.75115733    -0.05800
C518        C  0.16346028  0.19598382  0.73734857    -0.05700
C519        C  0.11758004  0.19972719  0.73606655    -0.23900
C520        C  0.10200519  0.22070146  0.74857257     0.18400
C521        C  0.13499472  0.24129133  0.76199583     0.15600
C522        C  0.18089132  0.23765208  0.76314288    -0.18900
C523        C  0.11996671  0.26220417  0.77455339    -0.20700
C524        C  0.07078592  0.25892323  0.77443733    -0.13300
C525        C  0.03581705  0.23525646  0.76168797     0.03400
C526        C  0.05270096  0.21842568  0.74840037    -0.25400
H527        H  0.17302729  0.17689829  0.72795281     0.08500
H528        H  0.09308889  0.18404241  0.72561807     0.12100
H529        H  0.20475311  0.25149978  0.77377893     0.12000
H530        H  0.14511174  0.27866337  0.78484709     0.11800
H531        H  0.05902970  0.27269144  0.78471978     0.12300
H532        H  0.02602601  0.19986134  0.73852214     0.14300
C533        C  0.71832143  0.21575537  0.75052148    -0.05800
C534        C  0.69403721  0.19800078  0.73569294    -0.05700
C535        C  0.64006625  0.17712425  0.73386991    -0.23900
C536        C  0.60938139  0.17462551  0.74679473     0.18400
C537        C  0.63256132  0.18985282  0.76196985     0.15600
C538        C  0.68710796  0.20957360  0.76381631    -0.18900
C539        C  0.60122573  0.18801072  0.77475541    -0.20700
C540        C  0.54897260  0.17586239  0.77223160    -0.13300
C541        C  0.52729589  0.16476437  0.75692072     0.03400
C542        C  0.55681659  0.16100936  0.74447514    -0.25400
H543        H  0.71715473  0.20116364  0.72536164     0.08500
H544        H  0.62275179  0.16517797  0.72220079     0.12100
H545        H  0.70556208  0.22290267  0.77530066     0.12000
H546        H  0.61799239  0.19907793  0.78650630     0.11800
H547        H  0.52695935  0.17902405  0.78203067     0.12300
H548        H  0.54026366  0.15187023  0.73265050     0.14300
C549        C  0.46722516  0.08783773  0.85420917    -0.05800
C550        C  0.50649505  0.13386787  0.84703208    -0.05700
C551        C  0.49438901  0.15554724  0.83404848    -0.23900
C552        C  0.44245510  0.13239637  0.82830083     0.18400
C553        C  0.40254579  0.08691399  0.83574925     0.15600
C554        C  0.41530330  0.06451319  0.84843998    -0.18900
C555        C  0.35038522  0.06459002  0.83043435    -0.20700
C556        C  0.33780390  0.08639610  0.81768136    -0.13300
C557        C  0.37714107  0.13065428  0.80978241     0.03400
C558        C  0.42962993  0.15373131  0.81526462    -0.25400
H559        H  0.54670827  0.15262651  0.85134137     0.08500
H560        H  0.52555595  0.19057353  0.82857166     0.12100
H561        H  0.38455027  0.02952774  0.85407782     0.12000
H562        H  0.31923944  0.03000786  0.83610123     0.11800
H563        H  0.29715792  0.06770018  0.81378009     0.12300
H564        H  0.46044849  0.18798952  0.80937066     0.14300
C565        C  0.87639954  0.54042438  0.91663350    -0.05800
C566        C  0.87558802  0.57035989  0.92960238    -0.05700
C567        C  0.84024447  0.58916998  0.93009501    -0.23900
C568        C  0.80466990  0.57797277  0.91766817     0.18400
C569        C  0.80814306  0.55185020  0.90396962     0.15600
C570        C  0.84467893  0.53380419  0.90342295    -0.18900
C571        C  0.77238268  0.54083255  0.89157360    -0.20700
C572        C  0.73090555  0.55125016  0.89330360    -0.13300
C573        C  0.72447372  0.57300457  0.90745612     0.03400
C574        C  0.76328477  0.58886342  0.91925531    -0.25400
H575        H  0.90069850  0.57702638  0.93977211     0.08500
H576        H  0.83877324  0.60985701  0.94057376     0.12100
H577        H  0.84529296  0.51100510  0.89335936     0.12000
H578        H  0.77466267  0.52142258  0.88090684     0.11800
H579        H  0.70188869  0.53893111  0.88392177     0.12300
H580        H  0.75916597  0.60598860  0.93017561     0.14300
C581        C  0.34131118  0.51495315  0.90453363    -0.05800
C582        C  0.31514748  0.50577176  0.88992430    -0.05700
C583        C  0.26531913  0.50014190  0.88893399    -0.23900
C584        C  0.24055519  0.50382023  0.90253426     0.18400
C585        C  0.26463254  0.50991798  0.91747604     0.15600
C586        C  0.31499685  0.51478182  0.91843572    -0.18900
C587        C  0.23903085  0.51404178  0.93097333    -0.20700
C588        C  0.19217688  0.51589889  0.92948398    -0.13300
C589        C  0.17025322  0.51318962  0.91448858     0.03400
C590        C  0.19349204  0.50465792  0.90119775    -0.25400
H591        H  0.33412292  0.50476107  0.87906769     0.08500
H592        H  0.24712873  0.49516155  0.87742765     0.12100
H593        H  0.33484116  0.52180558  0.92974137     0.12000
H594        H  0.25645913  0.51833636  0.94256054     0.11800
H595        H  0.17482758  0.52243285  0.93992335     0.12300
H596        H  0.17654313  0.50179790  0.88958977     0.14300
C597        C  0.46872819  0.20104148  0.91168304    -0.05800
C598        C  0.46813773  0.21861537  0.89629212    -0.05700
C599        C  0.47679661  0.26961217  0.89379032    -0.23900
C600        C  0.48740278  0.30405308  0.90661591     0.18400
C601        C  0.48367665  0.28498222  0.92214113     0.15600
C602        C  0.47289117  0.23331651  0.92456043    -0.18900
C603        C  0.49529768  0.31909316  0.93503450    -0.20700
C604        C  0.51482650  0.37257362  0.93257219    -0.13300
C605        C  0.52203710  0.39271736  0.91719823     0.03400
C606        C  0.50551690  0.35796446  0.90422726    -0.25400
H607        H  0.46424645  0.19420296  0.88613486     0.08500
H608        H  0.47874324  0.28318076  0.88181479     0.12100
H609        H  0.47297261  0.22024314  0.93649805     0.12000
H610        H  0.49208067  0.30497794  0.94699913     0.11800
H611        H  0.52572770  0.39859228  0.94276258     0.12300
H612        H  0.51035840  0.37329576  0.89236420     0.14300
C613        C  0.52580530  0.87375687  0.90398220    -0.05800
C614        C  0.54848116  0.86592944  0.89034576    -0.05700
C615        C  0.55668792  0.82306765  0.88900096    -0.23900
C616        C  0.54200059  0.78664278  0.90122312     0.18400
C617        C  0.52137994  0.79497294  0.91534922     0.15600
C618        C  0.51391703  0.83905909  0.91674763    -0.18900
C619        C  0.50635862  0.75762596  0.92743429    -0.20700
C620        C  0.50900697  0.71133612  0.92515791    -0.13300
C621        C  0.52701311  0.70169373  0.91078634     0.03400
C622        C  0.54519993  0.74068160  0.89912358    -0.25400
H623        H  0.55863496  0.89241127  0.88043145     0.08500
H624        H  0.57280529  0.81740508  0.87813904     0.12100
H625        H  0.49619890  0.84456386  0.92728401     0.12000
H626        H  0.49061671  0.76317057  0.93838556     0.11800
H627        H  0.49447132  0.68193076  0.93435242     0.12300
H628        H  0.55929822  0.73405156  0.88799647     0.14300
C629        C  0.19349513  0.02334497  0.75155671    -0.05800
C630        C  0.16462742  0.01210873  0.73739827    -0.05700
C631        C  0.11639856  0.96506718  0.73560235    -0.23900
C632        C  0.09642183  0.92832134  0.74790851     0.18400
C633        C  0.12724686  0.93783827  0.76170755     0.15600
C634        C  0.17534276  0.98507136  0.76343597    -0.18900
C635        C  0.10815461  0.90140606  0.77399113    -0.20700
C636        C  0.05750291  0.85792099  0.77317193    -0.13300
C637        C  0.02458456  0.84965388  0.76005750     0.03400
C638        C  0.04519233  0.88392227  0.74709835    -0.25400
H639        H  0.17761063  0.04122443  0.72813006     0.08500
H640        H  0.09370418  0.95853378  0.72487679     0.12100
H641        H  0.19738224  0.99332109  0.77438954     0.12000
H642        H  0.13155070  0.90769854  0.78455250     0.11800
H643        H  0.04320466  0.83177108  0.78320112     0.12300
H644        H  0.02039625  0.87810869  0.73690883     0.14300
C645        C  0.50069173  0.33899856  0.75667886    -0.05800
C646        C  0.53286449  0.35289726  0.77018499    -0.05700
C647        C  0.57191105  0.40536311  0.77287601    -0.23900
C648        C  0.57903383  0.44478761  0.76215979     0.18400
C649        C  0.54462520  0.43151279  0.74905221     0.15600
C650        C  0.50583543  0.37874327  0.74637366    -0.18900
C651        C  0.55152601  0.47071998  0.73833552    -0.20700
C652        C  0.59486048  0.52147913  0.73977473    -0.13300
C653        C  0.63176221  0.53413496  0.75204587     0.03400
C654        C  0.62201902  0.49633177  0.76371053    -0.25400
H655        H  0.52960314  0.32275273  0.77822942     0.08500
H656        H  0.59778586  0.41474419  0.78300568     0.12100
H657        H  0.48086000  0.36826796  0.73597671     0.12000
H658        H  0.52511742  0.46140334  0.72834255     0.11800
H659        H  0.60134376  0.55000282  0.73069951     0.12300
H660        H  0.65041655  0.50544390  0.77314463     0.14300
C661        C  0.83419583  0.85836196  0.76329070    -0.05800
C662        C  0.81477390  0.86894311  0.77721811    -0.05700
C663        C  0.81319806  0.91560241  0.77905716    -0.23900
C664        C  0.83112677  0.95291919  0.76700809     0.18400
C665        C  0.84745325  0.94141935  0.75252043     0.15600
C666        C  0.84856153  0.89388902  0.75068532    -0.18900
C667        C  0.86476030  0.97887320  0.74044063    -0.20700
C668        C  0.86786392  0.02782823  0.74291812    -0.13300
C669        C  0.85435241  0.04054420  0.75757701     0.03400
C670        C  0.83493645  0.00234186  0.76947004    -0.25400
H671        H  0.80294442  0.84197552  0.78705588     0.08500
H672        H  0.79989466  0.92338342  0.79015452     0.12100
H673        H  0.86389656  0.88636454  0.73994685     0.12000
H674        H  0.87721233  0.97088546  0.72922545     0.11800
H675        H  0.88292448  0.05663772  0.73355702     0.12300
H676        H  0.82383647  0.01149718  0.78075410     0.14300
C677        C  0.83623608  0.55165046  0.74945750    -0.05800
C678        C  0.85428208  0.54325100  0.73495065    -0.05700
C679        C  0.87779926  0.51215282  0.73401851    -0.23900
C680        C  0.88267406  0.48780138  0.74752832     0.18400
C681        C  0.86667868  0.49738064  0.76233787     0.15600
C682        C  0.84439311  0.53032245  0.76328379    -0.18900
C683        C  0.87044803  0.47130415  0.77569468    -0.20700
C684        C  0.88466528  0.43225870  0.77406454    -0.13300
C685        C  0.89655678  0.41983055  0.75910915     0.03400
C686        C  0.89930882  0.45072485  0.74614618    -0.25400
H687        H  0.84988563  0.56057856  0.72419627     0.08500
H688        H  0.89013282  0.50537925  0.72260570     0.12100
H689        H  0.83108974  0.53711615  0.77452830     0.12000
H690        H  0.85900983  0.47849222  0.78718885     0.11800
H691        H  0.88278274  0.40941502  0.78430591     0.12300
H692        H  0.90905467  0.44221607  0.73455842     0.14300
C693        C  0.60470410  0.57054839  0.85270986    -0.05800
C694        C  0.61272688  0.53086097  0.84606569    -0.05700
C695        C  0.64720330  0.54202882  0.83337307    -0.23900
C696        C  0.67536954  0.59346139  0.82741841     0.18400
C697        C  0.66712072  0.63338777  0.83403026     0.15600
C698        C  0.63122505  0.62147538  0.84636566    -0.18900
C699        C  0.69602989  0.68509454  0.82853957    -0.20700
C700        C  0.73349882  0.69756164  0.81680034    -0.13300
C701        C  0.74237790  0.65849167  0.81004819     0.03400
C702        C  0.71245538  0.60607952  0.81525847    -0.25400
H703        H  0.59259407  0.49126934  0.85077848     0.08500
H704        H  0.65283181  0.51080230  0.82849254     0.12100
H705        H  0.62582083  0.65254243  0.85152300     0.12000
H706        H  0.69019716  0.71613962  0.83347723     0.11800
H707        H  0.75525474  0.73808821  0.81287638     0.12300
H708        H  0.71875429  0.57557869  0.81011836     0.14300
C709        C  0.50055781  0.00390972  0.96924287    -0.05800
C710        C  0.47216578  0.95324359  0.97568301    -0.05700
C711        C  0.46940300  0.94658305  0.99209883    -0.23900
C712        C  0.49472881  0.99050439  0.00232787     0.18400
C713        C  0.52302585  0.04159072  0.99601884     0.15600
C714        C  0.52589064  0.04788661  0.97959921    -0.18900
C715        C  0.54780751  0.08558537  0.00623397    -0.20700
C716        C  0.54476858  0.07900701  0.02264180    -0.13300
C717        C  0.51718938  0.02830382  0.02908736     0.03400
C718        C  0.49212733  0.98422869  0.01875607    -0.25400
H719        H  0.45209032  0.91890805  0.96805613     0.08500
H720        H  0.44730458  0.90706625  0.99680461     0.12100
H721        H  0.54766911  0.08747388  0.97491168     0.12000
H722        H  0.56951850  0.12512642  0.00152283     0.11800
H723        H  0.56412044  0.11344223  0.03026098     0.12300
H724        H  0.47012432  0.94470578  0.02347808     0.14300
C725        C  0.42447027  0.95495207  0.14539888    -0.05800
C726        C  0.41833746  0.91013205  0.15327490    -0.05700
C727        C  0.38579352  0.89110807  0.16651674    -0.23900
C728        C  0.35772364  0.91575087  0.17175314     0.18400
C729        C  0.36332934  0.96049562  0.16370155     0.15600
C730        C  0.39728259  0.98027602  0.15078352    -0.18900
C731        C  0.33434137  0.98437190  0.16854435    -0.20700
C732        C  0.30010119  0.96428293  0.18129352    -0.13300
C733        C  0.29452595  0.92023198  0.18959719     0.03400
C734        C  0.32372966  0.89618271  0.18475560    -0.25400
H735        H  0.43907638  0.89017856  0.14925510     0.08500
H736        H  0.38200589  0.85674910  0.17251776     0.12100
H737        H  0.40132684  0.01448323  0.14459093     0.12000
H738        H  0.33794969  0.01847736  0.16242220     0.11800
H739        H  0.27824371  0.98367712  0.18472805     0.12300
H740        H  0.31982855  0.86217464  0.19101484     0.14300
C741        C  0.49590258  0.48376343  0.02615103    -0.05800
C742        C  0.52160763  0.46018623  0.01855902    -0.05700
C743        C  0.52356759  0.45927121  0.00208756    -0.23900
C744        C  0.50083904  0.48295245  0.99300212     0.18400
C745        C  0.47370425  0.50557104  0.00045941     0.15600
C746        C  0.47066584  0.50503365  0.01695655    -0.18900
C747        C  0.45208249  0.53031333  0.99132805    -0.20700
C748        C  0.45955580  0.53484793  0.97496056    -0.13300
C749        C  0.48797008  0.51389716  0.96750441     0.03400
C750        C  0.50692183  0.48643930  0.97662990    -0.25400
H751        H  0.54097094  0.44335856  0.02534792     0.08500
H752        H  0.54440491  0.44162290  0.99646704     0.12100
H753        H  0.45067499  0.52349364  0.02263496     0.12000
H754        H  0.43096251  0.54771884  0.99690961     0.11800
H755        H  0.44436465  0.55582645  0.96822968     0.12300
H756        H  0.52865903  0.46956941  0.97111099     0.14300
C757        C  0.49759014  0.85427869  0.07977087    -0.05800
C758        C  0.50750540  0.84085453  0.06470917    -0.05700
C759        C  0.52598774  0.80562087  0.06297205    -0.23900
C760        C  0.53371613  0.78221729  0.07625866     0.18400
C761        C  0.52677206  0.79736908  0.09154524     0.15600
C762        C  0.50973564  0.83443268  0.09323756    -0.18900
C763        C  0.53337608  0.77231944  0.10472935    -0.20700
C764        C  0.54089557  0.72885849  0.10266205    -0.13300
C765        C  0.54318015  0.71103143  0.08738863     0.03400
C766        C  0.54372451  0.74061113  0.07434854    -0.25400
H767        H  0.49994027  0.85687286  0.05416910     0.08500
H768        H  0.53156512  0.79461107  0.05119574     0.12100
H769        H  0.50279101  0.84514472  0.10489343     0.12000
H770        H  0.52899732  0.78384882  0.11655691     0.11800
H771        H  0.54112556  0.70709330  0.11292885     0.12300
H772        H  0.54677930  0.72808785  0.06251025     0.14300
C773        C  0.49283931  0.15766676  0.09547172    -0.05800
C774        C  0.47552332  0.17081358  0.10935542    -0.05700
C775        C  0.46831639  0.21445357  0.10990909    -0.23900
C776        C  0.47894182  0.24630949  0.09664207     0.18400
C777        C  0.49328752  0.23200034  0.08229747     0.15600
C778        C  0.49946030  0.18713340  0.08172456    -0.18900
C779        C  0.50425132  0.26468103  0.06911441    -0.20700
C780        C  0.50483966  0.31286359  0.07050201    -0.13300
C781        C  0.49411732  0.32880496  0.08506487     0.03400
C782        C  0.47873548  0.29400774  0.09785070    -0.25400
H783        H  0.46924072  0.14828280  0.12002834     0.08500
H784        H  0.45679050  0.22466138  0.12094243     0.12100
H785        H  0.51273286  0.17734629  0.07094861     0.12000
H786        H  0.51491041  0.25427359  0.05796844     0.11800
H787        H  0.51670373  0.33895243  0.06045585     0.12300
H788        H  0.46967811  0.30551126  0.10909236     0.14300
C789        C  0.01328605  0.82509971  0.23827152    -0.05800
C790        C  0.98378720  0.80089190  0.22456680    -0.05700
C791        C  0.93147359  0.78851202  0.22332873    -0.23900
C792        C  0.90799216  0.80127529  0.23564819     0.18400
C793        C  0.93622602  0.82322698  0.24984881     0.15600
C794        C  0.98871231  0.83418371  0.25120373    -0.18900
C795        C  0.91252006  0.83696075  0.26195933    -0.20700
C796        C  0.86348004  0.83334119  0.25945431    -0.13300
C797        C  0.83716904  0.81530190  0.24486975     0.03400
C798        C  0.85833000  0.79628117  0.23342822    -0.25400
H799        H  0.00180573  0.79284350  0.21456672     0.08500
H800        H  0.91025527  0.77141799  0.21241263     0.12100
H801        H  0.01134145  0.85300966  0.26179008     0.12000
H802        H  0.93324440  0.85350259  0.27297622     0.11800
H803        H  0.84806429  0.84822691  0.26850830     0.12300
H804        H  0.83828353  0.78179829  0.22219216     0.14300
C805        C  0.54143266  0.84537467  0.23980072    -0.05800
C806        C  0.51378092  0.83304410  0.22541310    -0.05700
C807        C  0.47332321  0.84484518  0.22321989    -0.23900
C808        C  0.46009459  0.86880073  0.23543666     0.18400
C809        C  0.49096621  0.88515693  0.24938066     0.15600
C810        C  0.53173205  0.87395351  0.25135974    -0.18900
C811        C  0.47790734  0.90846964  0.26172561    -0.20700
C812        C  0.43150515  0.91053707  0.26099419    -0.13300
C813        C  0.39812076  0.89032248  0.24779091     0.03400
C814        C  0.41413954  0.87256524  0.23458794    -0.25400
H815        H  0.52110682  0.81132372  0.21630502     0.08500
H816        H  0.45047549  0.83248129  0.21238664     0.12100
H817        H  0.55364787  0.88434614  0.26238301     0.12000
H818        H  0.50159684  0.92172653  0.27239430     0.11800
H819        H  0.42001125  0.92497970  0.27118172     0.12300
H820        H  0.38835973  0.85676646  0.22438581     0.14300
C821        C  0.58310323  0.59954058  0.14178561    -0.05800
C822        C  0.62867774  0.60426598  0.14901389    -0.05700
C823        C  0.65270776  0.63865516  0.16177401    -0.23900
C824        C  0.63154261  0.66892299  0.16776094     0.18400
C825        C  0.58501343  0.66371060  0.16092713     0.15600
C826        C  0.56131952  0.62944305  0.14790989    -0.18900
C827        C  0.56304817  0.69290685  0.16725908    -0.20700
C828        C  0.58684286  0.72677667  0.18018452    -0.13300
C829        C  0.63375558  0.73315332  0.18685939     0.03400
C830        C  0.65600803  0.70409009  0.18051065    -0.25400
H831        H  0.64651599  0.58190215  0.14463485     0.08500
H832        H  0.68804032  0.64169010  0.16692678     0.12100
H833        H  0.52614006  0.62618937  0.14255755     0.12000
H834        H  0.52726311  0.68931719  0.16228247     0.11800
H835        H  0.56871473  0.74845234  0.18491036     0.12300
H836        H  0.69161448  0.70790382  0.18572284     0.14300
C837        C  0.20962705  0.02143775  0.24816951    -0.05800
C838        C  0.19608049  0.03280107  0.26302848    -0.05700
C839        C  0.19834554  0.08138367  0.26586930    -0.23900
C840        C  0.21387450  0.11915747  0.25385927     0.18400
C841        C  0.23194447  0.10956765  0.23942402     0.15600
C842        C  0.23042682  0.06138976  0.23678539    -0.18900
C843        C  0.24746953  0.14652422  0.22731893    -0.20700
C844        C  0.24063582  0.19023336  0.22887518    -0.13300
C845        C  0.21870322  0.19845141  0.24262647     0.03400
C846        C  0.20803807  0.16424296  0.25549106    -0.25400
H847        H  0.18046128  0.00292851  0.27208307     0.08500
H848        H  0.18508572  0.08811463  0.27712094     0.12100
H849        H  0.24202513  0.05360522  0.22538091     0.12000
H850        H  0.26201266  0.14005367  0.21625930     0.11800
H851        H  0.25006229  0.21638550  0.21890391     0.12300
H852        H  0.19116934  0.17012685  0.26615782     0.14300
C853        C  0.13139956  0.50798288  0.24930137    -0.05800
C854        C  0.10854424  0.52359407  0.26122017    -0.05700
C855        C  0.11567416  0.57453461  0.26150309    -0.23900
C856        C  0.14643931  0.61108011  0.24999581     0.18400
C857        C  0.16654251  0.59500813  0.23729754     0.15600
C858        C  0.15816763  0.54318065  0.23689213    -0.18900
C859        C  0.19767086  0.63214455  0.22586579    -0.20700
C860        C  0.21144045  0.68533376  0.22758224    -0.13300
C861        C  0.19435971  0.70193378  0.24076676     0.03400
C862        C  0.16022888  0.66420556  0.25158004    -0.25400
H863        H  0.08760669  0.49734298  0.27085267     0.08500
H864        H  0.09958295  0.58621631  0.27122452     0.12100
H865        H  0.17637524  0.53190864  0.22767121     0.12000
H866        H  0.21328129  0.62053867  0.21600291     0.11800
H867        H  0.23780459  0.71388175  0.21913819     0.12300
H868        H  0.14651646  0.67679535  0.26170885     0.14300
C869        C  0.01990080  0.18425044  0.24465436    -0.05800
C870        C  0.00143935  0.16223665  0.25961632    -0.05700
C871        C  0.95391700  0.11438215  0.26109296    -0.23900
C872        C  0.92443982  0.08747863  0.24761890     0.18400
C873        C  0.94181914  0.11073110  0.23266481     0.15600
C874        C  0.98858242  0.15891673  0.23132579    -0.18900
C875        C  0.91354564  0.08442111  0.21909132    -0.20700
C876        C  0.86968952  0.03431803  0.22015914    -0.13300
C877        C  0.85259437  0.00945242  0.23483318     0.03400
C878        C  0.87927497  0.03697747  0.24866100    -0.25400
H879        H  0.02464374  0.18089634  0.27010864     0.08500
H880        H  0.94125398  0.09751612  0.27269508     0.12100
H881        H  0.00181176  0.17533757  0.21969159     0.12000
H882        H  0.92629069  0.10191558  0.20755676     0.11800
H883        H  0.84951828  0.01454649  0.20935155     0.12300
H884        H  0.86651200  0.01827272  0.26004497     0.14300
C885        C  0.31712504  0.50476659  0.25528150    -0.05800
C886        C  0.34017088  0.52454919  0.27016768    -0.05700
C887        C  0.39322986  0.56145940  0.27159046    -0.23900
C888        C  0.42439979  0.57994802  0.25814405     0.18400
C889        C  0.40238321  0.56014072  0.24306768     0.15600
C890        C  0.34868857  0.52196784  0.24171410    -0.18900
C891        C  0.43421911  0.58023153  0.22967668    -0.20700
C892        C  0.48628810  0.62154829  0.23120863    -0.13300
C893        C  0.50740954  0.64272367  0.24618348     0.03400
C894        C  0.47670707  0.61988133  0.25960583    -0.25400
H895        H  0.31708614  0.51140577  0.28085434     0.08500
H896        H  0.40962242  0.57636329  0.28321228     0.12100
H897        H  0.33131373  0.50693498  0.23019740     0.12000
H898        H  0.41826112  0.56556727  0.21800778     0.11800
H899        H  0.50905682  0.63855057  0.22063652     0.12300
H900        H  0.49233006  0.63548639  0.27124931     0.14300
C901        C  0.03230345  0.53512590  0.97575325    -0.05800
C902        C  0.08250378  0.55927564  0.98274187    -0.05700
C903        C  0.08777977  0.56005128  0.99919376    -0.23900
C904        C  0.04293370  0.53632168  0.00884611     0.18400
C905        C  0.99237663  0.51124278  0.00189381     0.15600
C906        C  0.98745777  0.51096604  0.98548102    -0.18900
C907        C  0.94746954  0.48672201  0.01145228    -0.20700
C908        C  0.95255957  0.48726227  0.02785658    -0.13300
C909        C  0.00262517  0.51267197  0.03495850     0.03400
C910        C  0.04771226  0.53704047  0.02531699    -0.25400
H911        H  0.11751140  0.57781191  0.97552010     0.08500
H912        H  0.12689378  0.57920597  0.00437074     0.12100
H913        H  0.94833787  0.49140886  0.98028291     0.12000
H914        H  0.90840322  0.46702885  0.00623453     0.11800
H915        H  0.91735903  0.46782596  0.03497571     0.12300
H916        H  0.08669095  0.55614994  0.03060037     0.14300
C917        C  0.18088938  0.46910590  0.09922839    -0.05800
C918        C  0.20998503  0.49200701  0.11310451    -0.05700
C919        C  0.26140092  0.50078198  0.11464604    -0.23900
C920        C  0.28410788  0.48680493  0.10229907     0.18400
C921        C  0.25250749  0.45835094  0.08915229     0.15600
C922        C  0.20103011  0.44926213  0.08779284    -0.18900
C923        C  0.27436691  0.44395301  0.07678904    -0.20700
C924        C  0.32826855  0.46274634  0.07652838    -0.13300
C925        C  0.36116589  0.49567464  0.08869748     0.03400
C926        C  0.33860017  0.50478700  0.10211202    -0.25400
H927        H  0.19479969  0.50730381  0.12211208     0.08500
H928        H  0.28452355  0.52181315  0.12493830     0.12100
H929        H  0.17831793  0.43096890  0.07716514     0.12000
H930        H  0.25048128  0.42129572  0.06679345     0.11800
H931        H  0.34483814  0.45402745  0.06628855     0.12300
H932        H  0.36373814  0.52972251  0.11159526     0.14300
C933        C  0.84974486  0.51814435  0.09467470    -0.05800
C934        C  0.84056328  0.54295586  0.10755487    -0.05700
C935        C  0.79869872  0.55283835  0.10738060    -0.23900
C936        C  0.76436303  0.53704041  0.09443795     0.18400
C937        C  0.77416556  0.51412240  0.08104312     0.15600
C938        C  0.81758291  0.50552043  0.08112903    -0.18900
C939        C  0.73842679  0.49735492  0.06830633    -0.20700
C940        C  0.69165243  0.49956528  0.06939926    -0.13300
C941        C  0.68034739  0.51900470  0.08317943     0.03400
C942        C  0.71828031  0.54023276  0.09525835    -0.25400
H943        H  0.86511235  0.55341278  0.11803125     0.08500
H944        H  0.79173454  0.57057890  0.11770131     0.12100
H945        H  0.82415157  0.48594617  0.07120153     0.12000
H946        H  0.74514587  0.47978889  0.05790660     0.11800
H947        H  0.66267598  0.48249170  0.06000847     0.12300
H948        H  0.70985146  0.55539993  0.10591746     0.14300
C949        C  0.29596757  0.83858136  0.08945450    -0.05800
C950        C  0.25631425  0.82460906  0.07798537    -0.05700
C951        C  0.21060367  0.77536424  0.07824772    -0.23900
C952        C  0.20376201  0.73876073  0.08990234     0.18400
C953        C  0.24126777  0.75341531  0.10220071     0.15600
C954        C  0.28698286  0.80366286  0.10202177    -0.18900
C955        C  0.23401601  0.71614628  0.11378937    -0.20700
C956        C  0.19220641  0.66397354  0.11253122    -0.13300
C957        C  0.15715154  0.64843387  0.09967861     0.03400
C958        C  0.16197225  0.68664653  0.08878747    -0.25400
H959        H  0.26185513  0.85079983  0.06828266     0.08500
H960        H  0.18190621  0.76488544  0.06883442     0.12100
H961        H  0.31726940  0.81373174  0.11091001     0.12000
H962        H  0.26216158  0.72658829  0.12335736     0.11800
H963        H  0.18945785  0.63501153  0.12096413     0.12300
H964        H  0.13499365  0.67487381  0.07883673     0.14300
C965        C  0.85525356  0.32875779  0.08747860    -0.05800
C966        C  0.82592850  0.32382311  0.07378411    -0.05700
C967        C  0.77856120  0.27719584  0.07066170    -0.23900
C968        C  0.76000522  0.23478926  0.08116940     0.18400
C969        C  0.79194660  0.23795929  0.09416995     0.15600
C970        C  0.83938008  0.28476182  0.09719347    -0.18900
C971        C  0.77394730  0.19591488  0.10469712    -0.20700
C972        C  0.72282226  0.15351188  0.10330575    -0.13300
C973        C  0.68889993  0.15189207  0.09125255     0.03400
C974        C  0.70863672  0.19122789  0.07965869    -0.25400
H975        H  0.83746199  0.35741555  0.06616149     0.08500
H976        H  0.75502350  0.27549372  0.06055717     0.12100
H977        H  0.86205878  0.28826868  0.10772253     0.12000
H978        H  0.79820086  0.19728851  0.11456868     0.11800
H979        H  0.70869776  0.12313186  0.11221729     0.12300
H980        H  0.68275956  0.19033345  0.07034611     0.14300
C981        C  0.03070894  0.42667031  0.14969335    -0.05800
C982        C  0.99704127  0.37539097  0.15527977    -0.05700
C983        C  0.01360297  0.35414386  0.16730005    -0.23900
C984        C  0.06397718  0.38397170  0.17404238     0.18400
C985        C  0.09740415  0.43603737  0.16879993     0.15600
C986        C  0.08072219  0.45685132  0.15666179    -0.18900
C987        C  0.14724892  0.46651336  0.17571149    -0.20700
C988        C  0.16405432  0.44572846  0.18771024    -0.13300
C989        C  0.13175242  0.39376319  0.19288054     0.03400
C990        C  0.08158027  0.36290069  0.18594132    -0.25400
H991        H  0.95836845  0.35118059  0.15008524     0.08500
H992        H  0.98721520  0.31427728  0.17122057     0.12100
H993        H  0.10697181  0.49653301  0.15255047     0.12000
H994        H  0.17321847  0.50658990  0.17188114     0.11800
H995        H  0.20259885  0.47037004  0.19293374     0.12300
H996        H  0.05588495  0.32305295  0.19002313     0.14300
C997        C  0.85578858  0.71786043  0.69704293    -0.05800
C998        C  0.85933765  0.76214331  0.68957762    -0.05700
C999        C  0.85152070  0.76144897  0.67326465    -0.23900
C1000       C  0.84003970  0.71646423  0.66417919     0.18400
C1001       C  0.83683728  0.67178353  0.67146894     0.15600
C1002       C  0.84512092  0.67293550  0.68780782    -0.18900
C1003       C  0.82497476  0.62671523  0.66229604    -0.20700
C1004       C  0.81755463  0.62650992  0.64591631    -0.13300
C1005       C  0.82214758  0.67146588  0.63854292     0.03400
C1006       C  0.83231510  0.71579391  0.64787444    -0.25400
H1007       H  0.86666461  0.79666278  0.69639461     0.08500
H1008       H  0.85393242  0.79596421  0.66776027     0.12100
H1009       H  0.84205790  0.63820152  0.69337682     0.12000
H1010       H  0.82213868  0.59195590  0.66776022     0.11800
H1011       H  0.80997724  0.59209872  0.63899454     0.12300
H1012       H  0.83523675  0.75056236  0.64236610     0.14300
C1013       C  0.67059257  0.84211443  0.35989897    -0.05800
C1014       C  0.62145441  0.82089196  0.35235456    -0.05700
C1015       C  0.61831194  0.82261125  0.33588632    -0.23900
C1016       C  0.66423232  0.84505166  0.32667447     0.18400
C1017       C  0.71382755  0.86570849  0.33407053     0.15600
C1018       C  0.71668654  0.86443141  0.35059342    -0.18900
C1019       C  0.75963467  0.88701109  0.32480127    -0.20700
C1020       C  0.75630578  0.88794306  0.30829942    -0.13300
C1021       C  0.70718179  0.86825512  0.30081487     0.03400
C1022       C  0.66130277  0.84682726  0.31018052    -0.25400
H1023       H  0.58555324  0.80344097  0.35918638     0.08500
H1024       H  0.57990347  0.80628622  0.33034043     0.12100
H1025       H  0.75500594  0.88043717  0.35619356     0.12000
H1026       H  0.79802496  0.90268690  0.33031484     0.11800
H1027       H  0.79204271  0.90405727  0.30141047     0.12300
H1028       H  0.62289832  0.83059597  0.30462327     0.14300
C1029       C  0.70386439  0.76661460  0.47584111    -0.05800
C1030       C  0.66793910  0.71532366  0.48093740    -0.05700
C1031       C  0.68098256  0.69194870  0.49321434    -0.23900
C1032       C  0.72994556  0.71971629  0.50089211     0.18400
C1033       C  0.76594310  0.77178329  0.49613203     0.15600
C1034       C  0.75301962  0.79463195  0.48352728    -0.18900
C1035       C  0.81419471  0.80021101  0.50411566    -0.20700
C1036       C  0.82662186  0.77753753  0.51670725    -0.13300
C1037       C  0.79157300  0.72554833  0.52147980     0.03400
C1038       C  0.74324069  0.69664195  0.51337150    -0.25400
H1039       H  0.63003538  0.69265387  0.47514555     0.08500
H1040       H  0.65270394  0.65211067  0.49670564     0.12100
H1041       H  0.78100371  0.83428374  0.47977697     0.12000
H1042       H  0.84214716  0.84029428  0.50074535     0.11800
H1043       H  0.86384266  0.80096914  0.52279372     0.12300
H1044       H  0.71535027  0.65690407  0.51706978     0.14300
C1045       C  0.33846678  0.18986794  0.69259014    -0.05800
C1046       C  0.28854787  0.17064013  0.68569328    -0.05700
C1047       C  0.28290811  0.16860536  0.66924041    -0.23900
C1048       C  0.32701044  0.18506912  0.65943444     0.18400
C1049       C  0.37720496  0.20350727  0.66623001     0.15600
C1050       C  0.38260767  0.20603815  0.68271219    -0.18900
C1051       C  0.42112140  0.21889153  0.65642747    -0.20700
C1052       C  0.41538084  0.21599270  0.63997345    -0.13300
C1053       C  0.36572467  0.19816310  0.63305125     0.03400
C1054       C  0.32169673  0.18292346  0.64295101    -0.25400
H1055       H  0.25406287  0.15783678  0.69300842     0.08500
H1056       H  0.24403260  0.15406495  0.66417932     0.12100
H1057       H  0.42134081  0.22021320  0.68785552     0.12000
H1058       H  0.45988787  0.23283109  0.66149522     0.11800
H1059       H  0.44967532  0.22744032  0.63267993     0.12300
H1060       H  0.28285553  0.16840502  0.63785218     0.14300
C1061       C  0.96771465  0.83609544  0.58588073    -0.05800
C1062       C  0.98842624  0.86117272  0.60049675    -0.05700
C1063       C  0.04168362  0.89683522  0.60234951    -0.23900
C1064       C  0.07569645  0.90907314  0.58958092     0.18400
C1065       C  0.05639155  0.88392883  0.57482233     0.15600
C1066       C  0.00225727  0.84677287  0.57307581    -0.18900
C1067       C  0.09140779  0.89815573  0.56205942    -0.20700
C1068       C  0.14375705  0.93938437  0.56370405    -0.13300
C1069       C  0.16205424  0.96610432  0.57823788     0.03400
C1070       C  0.12822603  0.94841783  0.59127474    -0.25400
H1071       H  0.96331320  0.85346723  0.61065726     0.08500
H1072       H  0.05602059  0.91597325  0.61371736     0.12100
H1073       H  0.98693352  0.82770088  0.56176025     0.12000
H1074       H  0.07770722  0.87922319  0.55064615     0.11800
H1075       H  0.16895320  0.95205160  0.55344211     0.12300
H1076       H  0.14162255  0.96791758  0.60264357     0.14300
C1077       C  0.49422383  0.34330948  0.56720852    -0.05800
C1078       C  0.50551902  0.37163666  0.55300948    -0.05700
C1079       C  0.54762312  0.42298963  0.55199540    -0.23900
C1080       C  0.57966875  0.44742268  0.56515360     0.18400
C1081       C  0.56720883  0.42099402  0.57978135     0.15600
C1082       C  0.52418838  0.36906647  0.58077651    -0.18900
C1083       C  0.59964868  0.44612893  0.59290767    -0.20700
C1084       C  0.64553417  0.49525678  0.59129818    -0.13300
C1085       C  0.65987072  0.52020586  0.57653375     0.03400
C1086       C  0.62549157  0.49671333  0.56365038    -0.25400
H1087       H  0.48269961  0.35342920  0.54241932     0.08500
H1088       H  0.55624150  0.44288178  0.54073688     0.12100
H1089       H  0.51595131  0.34792485  0.59181053     0.12000
H1090       H  0.59074383  0.42685675  0.60426413     0.11800
H1091       H  0.67131752  0.51225121  0.60142905     0.12300
H1092       H  0.63576571  0.51549131  0.55221036     0.14300
C1093       C  0.16093103  0.83218713  0.30260323    -0.05800
C1094       C  0.12875541  0.84901514  0.30986999    -0.05700
C1095       C  0.12580734  0.84993792  0.32634236    -0.23900
C1096       C  0.15585828  0.83508090  0.33575651     0.18400
C1097       C  0.18842963  0.81824956  0.32856115     0.15600
C1098       C  0.19029784  0.81639002  0.31206765    -0.18900
C1099       C  0.21931369  0.80448067  0.33797597    -0.20700
C1100       C  0.21857854  0.80812441  0.35444917    -0.13300
C1101       C  0.18661521  0.82516269  0.36174911     0.03400
C1102       C  0.15477403  0.83789101  0.35224128    -0.25400
H1103       H  0.10586921  0.86128188  0.30282578     0.08500
H1104       H  0.10064066  0.86300562  0.33172482     0.12100
H1105       H  0.21585263  0.80393839  0.30659440     0.12000
H1106       H  0.24465627  0.79165535  0.33258407     0.11800
H1107       H  0.24346392  0.79830770  0.36144820     0.12300
H1108       H  0.12980655  0.85122071  0.35763004     0.14300
C1109       C  0.84678816  0.79305069  0.42188023    -0.05800
C1110       C  0.86726292  0.79846771  0.43722919    -0.05700
C1111       C  0.91746909  0.80482048  0.43957491    -0.23900
C1112       C  0.94790472  0.80655868  0.42657779     0.18400
C1113       C  0.92516552  0.79588387  0.41129959     0.15600
C1114       C  0.87443393  0.78794717  0.40912364    -0.18900
C1115       C  0.95511411  0.79813968  0.39820431    -0.20700
C1116       C  0.00855003  0.81591611  0.39999390    -0.13300
C1117       C  0.03268068  0.83067706  0.41492592     0.03400
C1118       C  0.00168161  0.82295896  0.42835504    -0.25400
H1119       H  0.84634502  0.80191222  0.44728410     0.08500
H1120       H  0.93383272  0.81210144  0.45140141     0.12100
H1121       H  0.85852057  0.78270474  0.39726216     0.12000
H1122       H  0.93802318  0.78934345  0.38645775     0.11800
H1123       H  0.03159755  0.82008819  0.38955716     0.12300
H1124       H  0.02008099  0.83376110  0.43991850     0.14300
C1125       C  0.35590543  0.86408217  0.42702508    -0.05800
C1126       C  0.38515857  0.88139096  0.44115546    -0.05700
C1127       C  0.43517225  0.88709773  0.44225398    -0.23900
C1128       C  0.45704550  0.87552699  0.42924269     0.18400
C1129       C  0.43034730  0.86262216  0.41455585     0.15600
C1130       C  0.37991563  0.85757953  0.41346013    -0.18900
C1131       C  0.45304200  0.85134128  0.40158955    -0.20700
C1132       C  0.49926450  0.84860834  0.40351570    -0.13300
C1133       C  0.52355975  0.85726947  0.41842875     0.03400
C1134       C  0.50344544  0.87323152  0.43103227    -0.25400
H1135       H  0.36804179  0.88760504  0.45170889     0.08500
H1136       H  0.45546656  0.89772785  0.45353750     0.12100
H1137       H  0.35784817  0.84433063  0.40249741     0.12000
H1138       H  0.43368804  0.84203655  0.39016680     0.11800
H1139       H  0.51421110  0.83674623  0.39355106     0.12300
H1140       H  0.52219587  0.88092607  0.44254119     0.14300
C1141       C  0.21122482  0.91265228  0.47857652    -0.05800
C1142       C  0.17563398  0.92840509  0.48391169    -0.05700
C1143       C  0.18991237  0.96599344  0.49598823    -0.23900
C1144       C  0.24044026  0.98928729  0.50272035     0.18400
C1145       C  0.27664083  0.97395712  0.49735081     0.15600
C1146       C  0.26153677  0.93517882  0.48552351    -0.18900
C1147       C  0.32770400  0.99837577  0.50368893    -0.20700
C1148       C  0.34272326  0.03737451  0.51532338    -0.13300
C1149       C  0.30675377  0.05214962  0.52102320     0.03400
C1150       C  0.25553818  0.02789917  0.51463326    -0.25400
H1151       H  0.13684803  0.91196539  0.47862384     0.08500
H1152       H  0.16174849  0.97747482  0.49987511     0.12100
H1153       H  0.28970435  0.92413082  0.48128874     0.12000
H1154       H  0.35606837  0.98737708  0.49963551     0.11800
H1155       H  0.38232390  0.05526473  0.52009866     0.12300
H1156       H  0.22761463  0.03929588  0.51884734     0.14300
C1157       C  0.20647448  0.36039713  0.36598306    -0.05800
C1158       C  0.23159912  0.41051866  0.35910641    -0.05700
C1159       C  0.23474510  0.41533250  0.34264657    -0.23900
C1160       C  0.21220111  0.37009021  0.33288051     0.18400
C1161       C  0.18710364  0.31961226  0.33968685     0.15600
C1162       C  0.18484731  0.31516577  0.35611091    -0.18900
C1163       C  0.16373527  0.27433378  0.32997157    -0.20700
C1164       C  0.16439630  0.27901439  0.31354337    -0.13300
C1165       C  0.18886256  0.32903711  0.30661278     0.03400
C1166       C  0.21331913  0.37443273  0.31643059    -0.25400
H1167       H  0.24843464  0.44577578  0.36641801     0.08500
H1168       H  0.25410832  0.45439965  0.33754716     0.12100
H1169       H  0.16494495  0.27603577  0.36118135     0.12000
H1170       H  0.14419288  0.23530056  0.33509488     0.11800
H1171       H  0.14517599  0.24365149  0.30629641     0.12300
H1172       H  0.23229969  0.41349177  0.31131346     0.14300
C1173       C  0.16866314  0.18335767  0.41730870    -0.05800
C1174       C  0.19223064  0.17803828  0.40353848    -0.05700
C1175       C  0.21229277  0.14385337  0.40304891    -0.23900
C1176       C  0.20759753  0.11317393  0.41617829     0.18400
C1177       C  0.18522018  0.11898948  0.43029030     0.15600
C1178       C  0.16692710  0.15527047  0.43090353    -0.18900
C1179       C  0.17875704  0.08611971  0.44311008    -0.20700
C1180       C  0.18972225  0.04477750  0.44138087    -0.13300
C1181       C  0.20863682  0.03693971  0.42694541     0.03400
C1182       C  0.22109109  0.07382925  0.41487476    -0.25400
H1183       H  0.19475044  0.20016971  0.39304814     0.08500
H1184       H  0.22930764  0.13967192  0.39216291     0.12100
H1185       H  0.14874043  0.15939106  0.44154576     0.12000
H1186       H  0.16202191  0.09014989  0.45406786     0.11800
H1187       H  0.18011482  0.01704746  0.45093044     0.12300
H1188       H  0.23656020  0.06889622  0.40377014     0.14300
C1189       C  0.15588998  0.48417324  0.42873443    -0.05800
C1190       C  0.12909473  0.49349649  0.44097184    -0.05700
C1191       C  0.12413715  0.53846945  0.44100338    -0.23900
C1192       C  0.14644298  0.57525969  0.42889091     0.18400
C1193       C  0.17085679  0.56508466  0.41601867     0.15600
C1194       C  0.17483501  0.51905037  0.41591311    -0.18900
C1195       C  0.19355202  0.60270037  0.40401676    -0.20700
C1196       C  0.19487977  0.65122030  0.40530597    -0.13300
C1197       C  0.17354362  0.66248831  0.41860794     0.03400
C1198       C  0.14750346  0.62349148  0.42999567    -0.25400
H1199       H  0.11382504  0.46701799  0.45090832     0.08500
H1200       H  0.10503497  0.54567704  0.45088595     0.12100
H1201       H  0.19592479  0.51243140  0.40648360     0.12000
H1202       H  0.21226833  0.59556606  0.39402200     0.11800
H1203       H  0.21516378  0.68095132  0.39640658     0.12300
H1204       H  0.13041617  0.63183407  0.44019822     0.14300
C1205       C  0.35226260  0.49466271  0.43138532    -0.05800
C1206       C  0.37890017  0.51400216  0.44585008    -0.05700
C1207       C  0.42872270  0.55854177  0.44648381    -0.23900
C1208       C  0.45308353  0.58546598  0.43268224     0.18400
C1209       C  0.42830457  0.56598004  0.41791534     0.15600
C1210       C  0.37802002  0.52004042  0.41730840    -0.18900
C1211       C  0.45338659  0.59440662  0.40421971    -0.20700
C1212       C  0.50032834  0.64336976  0.40534104    -0.13300
C1213       C  0.52319581  0.66419669  0.42016097     0.03400
C1214       C  0.50050669  0.63331900  0.43363984    -0.25400
H1215       H  0.36068178  0.49526588  0.45685731     0.08500
H1216       H  0.44740022  0.57305990  0.45788563     0.12100
H1217       H  0.35806313  0.50576303  0.40606277     0.12000
H1218       H  0.43544816  0.58004613  0.39273361     0.11800
H1219       H  0.51703011  0.66611019  0.39475271     0.12300
H1220       H  0.51804549  0.64817294  0.44516070     0.14300
C1221       C  0.96726797  0.17124388  0.41790286    -0.05800
C1222       C  0.93267265  0.15839528  0.40498485    -0.05700
C1223       C  0.88796337  0.10856338  0.40372816    -0.23900
C1224       C  0.87752670  0.07055249  0.41527087     0.18400
C1225       C  0.90931707  0.08448520  0.42899671     0.15600
C1226       C  0.95356801  0.13519077  0.43036150    -0.18900
C1227       C  0.89860648  0.04620042  0.44053052    -0.20700
C1228       C  0.85919644  0.99378884  0.43795880    -0.13300
C1229       C  0.83017990  0.97903356  0.42380970     0.03400
C1230       C  0.83813639  0.01802716  0.41279810    -0.25400
H1231       H  0.94191726  0.18576730  0.39535235     0.08500
H1232       H  0.86342265  0.09874479  0.39326374     0.12100
H1233       H  0.97986295  0.14463197  0.44039854     0.12000
H1234       H  0.92229493  0.05623688  0.45118266    -0.02600
H1235       H  0.85340769  0.96429681  0.44662025     0.12300
H1236       H  0.81527136  0.00697304  0.40195067     0.14300
C1237       C  0.86951032  0.19966102  0.69854683    -0.05800
C1238       C  0.88298994  0.16417853  0.69171439    -0.05700
C1239       C  0.88240846  0.15859984  0.67528289    -0.23900
C1240       C  0.86890535  0.18886372  0.66550091     0.18400
C1241       C  0.85624114  0.22533641  0.67225799     0.15600
C1242       C  0.85649052  0.23034349  0.68869295    -0.18900
C1243       C  0.84344502  0.25609977  0.66247095    -0.20700
C1244       C  0.84307981  0.25066430  0.64603577    -0.13300
C1245       C  0.85525637  0.21420454  0.63917683     0.03400
C1246       C  0.86808072  0.18340504  0.64907091    -0.25400
H1247       H  0.89296612  0.14016693  0.69905955     0.08500
H1248       H  0.89235255  0.13051490  0.67022012     0.12100
H1249       H  0.84658738  0.25840298  0.69382515     0.12000
H1250       H  0.83390053  0.28447950  0.66753119     0.11800
H1251       H  0.83361446  0.27510465  0.63871512     0.12300
H1252       H  0.87800718  0.15529169  0.64400652     0.14300
C1253       C  0.87991423  0.37063028  0.57413206    -0.05800
C1254       C  0.90032168  0.40199741  0.56064527    -0.05700
C1255       C  0.90108700  0.44998070  0.55941620    -0.23900
C1256       C  0.88062200  0.46706277  0.57156358     0.18400
C1257       C  0.86383313  0.43803255  0.58571839     0.15600
C1258       C  0.86436682  0.39020732  0.58702451    -0.18900
C1259       C  0.84335112  0.45548606  0.59782766    -0.20700
C1260       C  0.83652268  0.49920770  0.59553614    -0.13300
C1261       C  0.84980965  0.52598662  0.58107922     0.03400
C1262       C  0.87360113  0.51076308  0.56935899    -0.25400
H1263       H  0.91280555  0.38778151  0.55062686     0.08500
H1264       H  0.91477450  0.47212403  0.54857912     0.12100
H1265       H  0.84814570  0.36605629  0.59741561     0.12000
H1266       H  0.83057540  0.43405170  0.60880482     0.11800
H1267       H  0.81835342  0.51040616  0.60477085     0.12300
H1268       H  0.88469522  0.53165173  0.55825152     0.14300
C1269       C  0.85224093  0.04785294  0.58341141    -0.05800
C1270       C  0.82639631  0.02039130  0.59710935    -0.05700
C1271       C  0.80290017  0.96573374  0.59774949    -0.23900
C1272       C  0.80562416  0.93736106  0.58479084     0.18400
C1273       C  0.82977293  0.96398681  0.57069504     0.15600
C1274       C  0.85222001  0.01929294  0.56997086    -0.18900
C1275       C  0.83345262  0.93504140  0.55795541    -0.20700
C1276       C  0.81713499  0.88132457  0.55963038    -0.13300
C1277       C  0.79599972  0.85545221  0.57398940     0.03400
C1278       C  0.78774942  0.88333741  0.58617630    -0.25400
H1279       H  0.82508714  0.04147713  0.60751045     0.08500
H1280       H  0.78442353  0.94589108  0.60861939     0.12100
H1281       H  0.87208771  0.04019378  0.55936714     0.12000
H1282       H  0.85160272  0.95452112  0.54701807     0.11800
H1283       H  0.82416723  0.86099489  0.55002472     0.12300
H1284       H  0.77151457  0.86418605  0.59732147     0.14300
C1285       C  0.49863334  0.15068153  0.57347509    -0.05800
C1286       C  0.50820547  0.12314327  0.56146241    -0.05700
C1287       C  0.55541221  0.12242587  0.56093978    -0.23900
C1288       C  0.59434792  0.14959922  0.57238296     0.18400
C1289       C  0.58397296  0.17415249  0.58524538     0.15600
C1290       C  0.53566209  0.17412215  0.58581909    -0.18900
C1291       C  0.62348635  0.20098793  0.59668907    -0.20700
C1292       C  0.67346480  0.20592822  0.59488790    -0.13300
C1293       C  0.68485531  0.18448366  0.58155777     0.03400
C1294       C  0.64443323  0.15496269  0.57063212    -0.25400
H1295       H  0.48020479  0.10470206  0.55187821     0.08500
H1296       H  0.56252957  0.10291793  0.55110849     0.12100
H1297       H  0.52890584  0.19593779  0.59504243     0.12000
H1298       H  0.61638751  0.21977455  0.60671306     0.11800
H1299       H  0.70394620  0.22872659  0.60350394     0.12300
H1300       H  0.65254788  0.13767059  0.56040954     0.14300
C1301       C  0.19788831  0.16963304  0.56937861    -0.05800
C1302       C  0.16377210  0.14968501  0.55629840    -0.05700
C1303       C  0.12410594  0.16281114  0.55414984    -0.23900
C1304       C  0.11799128  0.19563628  0.56513663     0.18400
C1305       C  0.15516771  0.21913576  0.57751640     0.15600
C1306       C  0.19514803  0.20665705  0.57937601    -0.18900
C1307       C  0.14933570  0.25127359  0.58869410    -0.20700
C1308       C  0.10427927  0.25589797  0.58859398    -0.13300
C1309       C  0.06483037  0.22935860  0.57714473     0.03400
C1310       C  0.07325065  0.20184062  0.56483217    -0.25400
H1311       H  0.16553147  0.12135993  0.54837164     0.08500
H1312       H  0.09639325  0.14483255  0.54447892     0.12100
H1313       H  0.22196226  0.22294064  0.58934388     0.12000
H1314       H  0.17781071  0.26988631  0.59815711     0.11800
H1315       H  0.09868610  0.27765138  0.59808245     0.12300
H1316       H  0.04278305  0.18101874  0.55601564     0.14300
C1317       C  0.93978690  0.23815887  0.52181066    -0.05800
C1318       C  0.94490421  0.28112229  0.51299123    -0.05700
C1319       C  0.97919320  0.30038753  0.50024053    -0.23900
C1320       C  0.00890759  0.27687581  0.49585885     0.18400
C1321       C  0.00295857  0.23234848  0.50412297     0.15600
C1322       C  0.96871068  0.21345804  0.51717077    -0.18900
C1323       C  0.03184878  0.20810702  0.49923032    -0.20700
C1324       C  0.06666258  0.22833372  0.48645683    -0.13300
C1325       C  0.07416817  0.27390647  0.47868350     0.03400
C1326       C  0.04481301  0.29765388  0.48340048    -0.25400
H1327       H  0.92336101  0.30104570  0.51620200     0.08500
H1328       H  0.98293698  0.33420896  0.49391294     0.12100
H1329       H  0.96510686  0.18017567  0.52377831     0.12000
H1330       H  0.02762649  0.17367111  0.50529207     0.11800
H1331       H  0.08861397  0.20917124  0.48287921     0.12300
H1332       H  0.04956051  0.33215116  0.47721760     0.14300
loop_ 
_geom_bond_atom_site_label_1 
_geom_bond_atom_site_label_2 
_geom_bond_distance 
_geom_bond_site_symmetry_2 
_ccdc_geom_bond_type 
O1           Ni7   1.904       .  S
O1           C22   1.262       .  A
O2          Ni25   1.909       .  S
O2           C11   1.268       .  A
O3           Ni7   1.892       .  S
O3          Ni25   1.904       .  S
O3          Ni19   1.917       .  S
O3           H26   0.964       .  S
C4           O21   1.280       .  A
C4           O13   1.281       .  A
C4         C1293   1.485       .  S
O5          Ni24   1.939       .  S
O5           C11   1.276       .  A
O6          Ni24   1.901       .  S
O6            C8   1.269       .  A
Ni7          O10   1.911       .  S
Ni7          O12   1.894       .  S
C8           O18   1.275       .  A
C8         C1253   1.478       .  S
O9          Ni25   1.928       .  S
O9           C15   1.278   1_655  A
O10          C15   1.277   1_655  A
C11        C1317   1.489       .  S
O12          C14   1.265       .  A
O13         Ni24   1.930       .  S
C14          O20   1.271       .  A
C14        C1269   1.477       .  S
C15        C1309   1.473       .  S
H16          O17   0.966       .  S
O17         Ni25   1.916       .  S
O17         Ni19   1.915       .  S
O17         Ni24   1.889       .  S
O18         Ni19   1.938       .  S
Ni19         O23   1.935       .  S
Ni19         O21   1.928       .  S
O20         Ni25   1.935       .  S
C22          O23   1.273       .  A
C22        C1245   1.482       .  S
O27         Ni33   1.896       .  S
O27          C48   1.259       .  A
O28         Ni51   1.904       .  S
O28          C37   1.266       .  A
O29         Ni33   1.886       .  S
O29         Ni51   1.891       .  S
O29         Ni45   1.923       .  S
O29          H52   0.966       .  S
C30          O47   1.280       .  A
C30          O39   1.282       .  A
C30        C1205   1.490       .  S
O31         Ni50   1.947       .  S
O31          C37   1.277       .  A
O32         Ni50   1.896       .  S
O32          C34   1.268       .  A
Ni33         O36   1.910       .  S
Ni33         O38   1.896       .  S
C34          O44   1.274       .  A
C34        C1189   1.475       .  S
O35         Ni51   1.933       .  S
O35          C41   1.281       .  A
O36          C41   1.277       .  A
C37        C1325   1.479       .  S
O38          C40   1.265       .  A
O39         Ni50   1.933       .  S
C40          O46   1.266       .  A
C40        C1173   1.466       .  S
C41        C1221   1.479   1_455  S
H42          O43   0.966       .  S
O43         Ni51   1.912       .  S
O43         Ni45   1.919       .  S
O43         Ni50   1.887       .  S
O44         Ni45   1.933       .  S
Ni45         O49   1.942       .  S
Ni45         O47   1.926       .  S
O46         Ni51   1.918       .  S
C48          O49   1.274       .  A
C48        C1157   1.481       .  S
O53         Ni59   1.904       .  S
O53          C74   1.263       .  A
O54         Ni77   1.892       .  S
O54          C63   1.264       .  A
O55         Ni59   1.883       .  S
O55         Ni77   1.897       .  S
O55         Ni71   1.911       .  S
O55          H78   0.967       .  S
C56          O73   1.279       .  A
C56          O65   1.281       .  A
C56        C1197   1.471       .  S
O57         Ni76   1.945       .  S
O57          C63   1.276       .  A
O58         Ni76   1.894       .  S
O58          C60   1.269       .  A
Ni59         O62   1.904       .  S
Ni59         O64   1.896       .  S
C60          O70   1.276       .  A
C60        C1125   1.482       .  S
O61         Ni77   1.924       .  S
O61          C67   1.276       .  A
O62          C67   1.276       .  A
C63        C1141   1.478       .  S
O64          C66   1.266       .  A
O65         Ni76   1.923       .  S
C66          O72   1.268       .  A
C66        C1117   1.470       .  S
C67        C1181   1.476   1_565  S
H68          O69   0.966       .  S
O69         Ni77   1.896       .  S
O69         Ni71   1.911       .  S
O69         Ni76   1.882       .  S
O70         Ni71   1.943       .  S
Ni71         O75   1.938       .  S
Ni71         O73   1.917       .  S
O72         Ni77   1.924       .  S
C74          O75   1.276       .  A
C74        C1101   1.484       .  S
O79         Ni85   1.906       .  S
O79         C100   1.262       .  A
O80        Ni103   1.905       .  S
O80          C89   1.266       .  A
O81         Ni85   1.899       .  S
O81        Ni103   1.910       .  S
O81         Ni97   1.924       .  S
O81         H104   0.969       .  S
C82          O99   1.284       .  A
C82          O91   1.279       .  A
C82        C1077   1.488       .  S
O83        Ni102   1.933       .  S
O83          C89   1.272       .  A
O84        Ni102   1.897       .  S
O84          C86   1.268       .  A
Ni85         O88   1.916       .  S
Ni85         O90   1.893       .  S
C86          O96   1.276       .  A
C86        C1285   1.481       .  S
O87        Ni103   1.924       .  S
O87          C93   1.277       .  A
O88          C93   1.277       .  A
C89        C1149   1.479       .  S
O90          C92   1.265       .  A
O91        Ni102   1.914       .  S
C92          O98   1.270       .  A
C92        C1301   1.476       .  S
C93        C1069   1.485   1_545  S
H94          O95   0.965       .  S
O95        Ni103   1.912       .  S
O95         Ni97   1.913       .  S
O95        Ni102   1.887       .  S
O96         Ni97   1.945       .  S
Ni97        O101   1.938       .  S
Ni97         O99   1.943       .  S
O98        Ni103   1.935       .  S
C100        O101   1.275       .  A
C100       C1053   1.486       .  S
O105       Ni111   1.907       .  S
O105        C126   1.264       .  A
O106       Ni129   1.909       .  S
O106        C115   1.266       .  A
O107       Ni111   1.899       .  S
O107       Ni129   1.905       .  S
O107       Ni123   1.913       .  S
O107        H130   0.969       .  S
C108        O125   1.279       .  A
C108        O117   1.280       .  A
C108       C1133   1.485       .  S
O109       Ni128   1.946       .  S
O109        C115   1.275       .  A
O110       Ni128   1.893       .  S
O110        C112   1.269       .  A
Ni111       O114   1.916       .  S
Ni111       O116   1.900       .  S
C112        O122   1.279       .  A
C112       C1213   1.489       .  S
O113       Ni129   1.914       .  S
O113        C119   1.275       .  A
O114        C119   1.278       .  A
C115       C1029   1.488       .  S
O116        C118   1.266       .  A
O117       Ni128   1.926       .  S
C118        O124   1.270       .  A
C118       C1229   1.475       .  S
C119       C1109   1.475       .  S
H120        O121   0.966       .  S
O121       Ni129   1.910       .  S
O121       Ni123   1.920       .  S
O121       Ni128   1.893       .  S
O122       Ni123   1.951       .  S
Ni123       O127   1.939       .  S
Ni123       O125   1.925       .  S
O124       Ni129   1.930       .  S
C126        O127   1.276       .  A
C126       C1013   1.487       .  S
O131       Ni137   1.902       .  S
O131        C152   1.263       .  A
O132       Ni155   1.892       .  S
O132        C141   1.268       .  A
O133       Ni137   1.885       .  S
O133       Ni155   1.898       .  S
O133       Ni149   1.923       .  S
O133        H156   0.966       .  S
C134        O151   1.282       .  A
C134        O143   1.287       .  A
C134       C1261   1.481       .  S
O135       Ni154   1.965       .  S
O135        C141   1.283       .  A
O136       Ni154   1.912       .  S
O136        C138   1.272       .  A
Ni137       O140   1.911       .  S
Ni137       O142   1.899       .  S
C138        O148   1.274       .  A
C138       C1085   1.487       .  S
O139       Ni155   1.928       .  S
O139        C145   1.277       .  A
O140        C145   1.276       .  A
C141       C1037   1.491       .  S
O142        C144   1.268       .  A
O143       Ni154   1.943       .  S
C144        O150   1.273       .  A
C144       C1061   1.483       .  S
C145       C1277   1.484       .  S
H146        O147   0.966       .  S
O147       Ni155   1.895       .  S
O147       Ni149   1.903       .  S
O147       Ni154   1.884       .  S
O148       Ni149   1.933       .  S
Ni149       O153   1.942       .  S
Ni149       O151   1.919       .  S
O150       Ni155   1.936       .  S
C152        O153   1.275       .  A
C152       C1005   1.482       .  S
O157       Ni163   1.913       .  S
O157        C178   1.266       .  A
O158       Ni181   1.897       .  S
O158        C167   1.267       .  A
O159       Ni163   1.901       .  S
O159       Ni181   1.909       .  S
O159       Ni175   1.922   1_455  S
O159        H182   0.971       .  S
C160        O177   1.282       .  A
C160        O169   1.281       .  A
C160        C933   1.478       .  S
O161       Ni180   1.945       .  S
O161        C167   1.275   1_655  A
O162       Ni180   1.908       .  S
O162        C164   1.269       .  A
Ni163       O166   1.921       .  S
Ni163       O168   1.899       .  S
C164        O174   1.269       .  A
C164        C965   1.477       .  S
O165       Ni181   1.910       .  S
O165        C171   1.271       .  A
O166        C171   1.276       .  A
C167        C981   1.484       .  S
O168        C170   1.267       .  A
O169       Ni180   1.923       .  S
C170        O176   1.276       .  A
C170        C957   1.480       .  S
C171        C917   1.470       .  S
H172        O173   0.965   1_455  S
O173       Ni181   1.897   1_655  S
O173       Ni175   1.909       .  S
O173       Ni180   1.899       .  S
O174       Ni175   1.925       .  S
Ni175       O179   1.922       .  S
Ni175       O177   1.933       .  S
O176       Ni181   1.946       .  S
C178        O179   1.271   1_455  A
C178        C909   1.480       .  S
O183       Ni189   1.903       .  S
O183        C204   1.263       .  A
O184       Ni207   1.894       .  S
O184        C193   1.268       .  A
O185       Ni189   1.883       .  S
O185       Ni207   1.891       .  S
O185       Ni201   1.929       .  S
O185        H208   0.966       .  S
C186        O203   1.286       .  A
C186        O195   1.283       .  A
C186        C845   1.487       .  S
O187       Ni206   1.950       .  S
O187        C193   1.278       .  A
O188       Ni206   1.900       .  S
O188        C190   1.270       .  A
Ni189       O192   1.916       .  S
Ni189       O194   1.894       .  S
C190        O200   1.274       .  A
C190        C869   1.486       .  S
O191       Ni207   1.931       .  S
O191        C197   1.278       .  A
O192        C197   1.277       .  A
C193        C989   1.482       .  S
O194        C196   1.266       .  A
O195       Ni206   1.927       .  S
C196        O202   1.272       .  A
C196        C885   1.474       .  S
C197        C853   1.483       .  S
H198        O199   0.967       .  S
O199       Ni207   1.900       .  S
O199       Ni201   1.906       .  S
O199       Ni206   1.879       .  S
O200       Ni201   1.935       .  S
Ni201       O205   1.938       .  S
Ni201       O203   1.940       .  S
O202       Ni207   1.930       .  S
C204        O205   1.277       .  A
C204       C1165   1.482       .  S
O209       Ni215   1.897       .  S
O209        C230   1.259       .  A
O210       Ni233   1.899       .  S
O210        C219   1.263       .  A
O211       Ni215   1.902       .  S
O211       Ni233   1.906       .  S
O211       Ni227   1.922       .  S
O211        H234   0.968       .  S
C212        O229   1.281       .  A
C212        O221   1.282       .  A
C212        C877   1.483   1_565  S
O213       Ni232   1.957       .  S
O213        C219   1.277       .  A
O214       Ni232   1.904       .  S
O214        C216   1.270       .  A
Ni215       O218   1.909       .  S
Ni215       O220   1.895       .  S
C216        O226   1.271       .  A
C216        C797   1.481       .  S
O217       Ni233   1.915       .  S
O217        C223   1.275       .  A
O218        C223   1.277       .  A
C219        C829   1.487       .  S
O220        C222   1.266       .  A
O221       Ni232   1.929       .  S
C222        O228   1.266       .  A
C222        C805   1.470       .  S
C223        C893   1.477       .  S
H224        O225   0.968       .  S
O225       Ni233   1.900       .  S
O225       Ni227   1.922       .  S
O225       Ni232   1.897       .  S
O226       Ni227   1.924       .  S
Ni227       O231   1.946       .  S
Ni227       O229   1.925       .  S
O228       Ni233   1.918       .  S
C230        O231   1.273       .  A
C230       C1021   1.488       .  S
O235       Ni241   1.906       .  S
O235        C256   1.262       .  A
O236       Ni259   1.915       .  S
O236        C245   1.270       .  A
O237       Ni241   1.894       .  S
O237       Ni259   1.910       .  S
O237       Ni253   1.915       .  S
O237        H260   0.974       .  S
C238        O255   1.279       .  A
C238        O247   1.280       .  A
C238        C781   1.480       .  S
O239       Ni258   1.936       .  S
O239        C245   1.274       .  A
O240       Ni258   1.898       .  S
O240        C242   1.269       .  A
Ni241       O244   1.908       .  S
Ni241       O246   1.886       .  S
C242        O252   1.274       .  A
C242        C941   1.478       .  S
O243       Ni259   1.919       .  S
O243        C249   1.276       .  A
O244        C249   1.276       .  A
C245        C821   1.492       .  S
O246        C248   1.264       .  A
O247       Ni258   1.920       .  S
C248        O254   1.272       .  A
C248        C925   1.474       .  S
C249        C765   1.476       .  S
H250        O251   0.962       .  S
O251       Ni259   1.909       .  S
O251       Ni253   1.913       .  S
O251       Ni258   1.885       .  S
O252       Ni253   1.937       .  S
Ni253       O257   1.931       .  S
Ni253       O255   1.925       .  S
O254       Ni259   1.941       .  S
C256        O257   1.273       .  A
C256        C741   1.480       .  S
O261       Ni267   1.903       .  S
O261        C282   1.262   1_565  A
O262       Ni285   1.904       .  S
O262        C271   1.268       .  A
O263       Ni267   1.889       .  S
O263       Ni285   1.901       .  S
O263       Ni279   1.929   1_565  S
O263        H286   0.965   1_565  S
C264        O281   1.285       .  A
C264        O273   1.280       .  A
C264        C973   1.480       .  S
O265       Ni284   1.936       .  S
O265        C271   1.275   1_545  A
O266       Ni284   1.900       .  S
O266        C268   1.269       .  A
Ni267       O270   1.915       .  S
Ni267       O272   1.894       .  S
C268        O278   1.274       .  A
C268        C773   1.481       .  S
O269       Ni285   1.936       .  S
O269        C275   1.279       .  A
O270        C275   1.277       .  A
C271        C725   1.473       .  S
O272        C274   1.266       .  A
O273       Ni284   1.918       .  S
C274        O280   1.268       .  A
C274        C757   1.471       .  S
C275        C949   1.486       .  S
H276        O277   0.967       .  S
O277       Ni285   1.904   1_545  S
O277       Ni279   1.909       .  S
O277       Ni284   1.881       .  S
O278       Ni279   1.935       .  S
Ni279       O283   1.945       .  S
Ni279       O281   1.941       .  S
O280       Ni285   1.920       .  S
C282        O283   1.277       .  A
C282        C717   1.487       .  S
O287       Ni293   1.902       .  S
O287        C308   1.262       .  A
O288       Ni311   1.904       .  S
O288        C297   1.268       .  A
O289       Ni293   1.894       .  S
O289       Ni311   1.904       .  S
O289       Ni305   1.919       .  S
O289        H312   0.966       .  S
C290        O307   1.279       .  A
C290        O299   1.279       .  A
C290        C789   1.474       .  S
O291       Ni310   1.935       .  S
O291        C297   1.274       .  A
O292       Ni310   1.906       .  S
O292        C294   1.270       .  A
Ni293       O296   1.911       .  S
Ni293       O298   1.897       .  S
C294        O304   1.273       .  A
C294        C837   1.487   1_565  S
O295       Ni311   1.919       .  S
O295        C301   1.276       .  A
O296        C301   1.276       .  A
C297        C733   1.483       .  S
O298        C300   1.266       .  A
O299       Ni310   1.919       .  S
C300        O306   1.272       .  A
C300        C861   1.477       .  S
C301        C813   1.469       .  S
H302        O303   0.966       .  S
O303       Ni311   1.905       .  S
O303       Ni305   1.914       .  S
O303       Ni310   1.892       .  S
O304       Ni305   1.936       .  S
Ni305       O309   1.931       .  S
Ni305       O307   1.926       .  S
O306       Ni311   1.938       .  S
C308        O309   1.272       .  A
C308       C1093   1.478       .  S
O313       Ni319   1.895       .  S
O313        C334   1.258       .  A
O314       Ni337   1.908       .  S
O314        C323   1.270       .  A
O315       Ni319   1.884       .  S
O315       Ni337   1.891       .  S
O315       Ni331   1.929       .  S
O315        H338   0.969       .  S
C316        O333   1.284       .  A
C316        O325   1.280       .  A
C316        C637   1.489   1_655  S
O317       Ni336   1.929       .  S
O317        C323   1.274       .  A
O318       Ni336   1.892       .  S
O318        C320   1.268       .  A
Ni319       O322   1.909       .  S
Ni319       O324   1.891       .  S
C320        O330   1.280       .  A
C320        C661   1.483       .  S
O321       Ni337   1.941       .  S
O321        C327   1.283       .  A
O322        C327   1.277       .  A
C323        C701   1.482       .  S
O324        C326   1.264       .  A
O325       Ni336   1.920       .  S
C326        O332   1.269       .  A
C326        C677   1.472       .  S
C327        C653   1.480       .  S
H328        O329   0.965       .  S
O329       Ni337   1.920       .  S
O329       Ni331   1.910       .  S
O329       Ni336   1.875       .  S
O330       Ni331   1.950       .  S
Ni331       O335   1.947       .  S
Ni331       O333   1.943       .  S
O332       Ni337   1.928       .  S
C334        O335   1.278       .  A
C334        C997   1.483       .  S
O339       Ni345   1.907       .  S
O339        C360   1.265       .  A
O340       Ni363   1.894       .  S
O340        C349   1.268       .  A
O341       Ni345   1.887       .  S
O341       Ni363   1.895       .  S
O341       Ni357   1.926       .  S
O341        H364   0.966       .  S
C342        O359   1.285       .  A
C342        O351   1.283       .  A
C342        C581   1.476       .  S
O343       Ni362   1.948       .  S
O343        C349   1.280       .  A
O344       Ni362   1.910       .  S
O344        C346   1.271       .  A
Ni345       O348   1.921       .  S
Ni345       O350   1.897       .  S
C346        O356   1.273       .  A
C346        C621   1.487       .  S
O347       Ni363   1.922       .  S
O347        C353   1.275       .  A
O348        C353   1.277       .  A
C349        C693   1.478       .  S
O350        C352   1.266       .  A
O351       Ni362   1.923       .  S
C352        O358   1.270       .  A
C352        C605   1.468       .  S
C353        C573   1.484       .  S
H354        O355   0.966       .  S
O355       Ni363   1.883       .  S
O355       Ni357   1.900       .  S
O355       Ni362   1.871       .  S
O356       Ni357   1.933       .  S
Ni357       O361   1.937       .  S
Ni357       O359   1.927       .  S
O358       Ni363   1.927       .  S
C360        O361   1.277       .  A
C360        C749   1.483       .  S
O365       Ni371   1.911       .  S
O365        C386   1.265       .  A
O366       Ni389   1.906       .  S
O366        C375   1.266       .  A
O367       Ni371   1.906       .  S
O367       Ni389   1.910       .  S
O367       Ni383   1.921       .  S
O367        H390   0.967       .  S
C368        O385   1.280       .  A
C368        O377   1.280       .  A
C368        C517   1.484       .  S
O369       Ni388   1.943       .  S
O369        C375   1.276       .  A
O370       Ni388   1.908       .  S
O370        C372   1.270       .  A
Ni371       O374   1.918       .  S
Ni371       O376   1.904       .  S
C372        O382   1.275       .  A
C372        C629   1.482       .  S
O373       Ni389   1.917       .  S
O373        C379   1.274       .  A
O374        C379   1.276       .  A
C375        C557   1.489       .  S
O376        C378   1.267       .  A
O377       Ni388   1.926       .  S
C378        O384   1.271       .  A
C378        C645   1.476       .  S
C379        C541   1.478       .  S
H380        O381   0.966       .  S
O381       Ni389   1.911       .  S
O381       Ni383   1.916       .  S
O381       Ni388   1.898       .  S
O382       Ni383   1.935       .  S
Ni383       O387   1.931       .  S
Ni383       O385   1.932       .  S
O384       Ni389   1.931       .  S
C386        O387   1.273       .  A
C386       C1045   1.484       .  S
O391       Ni397   1.901       .  S
O391        C412   1.261       .  A
O392       Ni415   1.906       .  S
O392        C401   1.266       .  A
O393       Ni397   1.895       .  S
O393       Ni415   1.902       .  S
O393       Ni409   1.924   1_545  S
O393        H416   0.965       .  S
C394        O411   1.284       .  A
C394        O403   1.281       .  A
C394        C613   1.481       .  S
O395       Ni414   1.947   1_545  S
O395        C401   1.275       .  A
O396       Ni414   1.900       .  S
O396        C398   1.269       .  A
Ni397       O400   1.916       .  S
Ni397       O402   1.891       .  S
C398        O408   1.274       .  A
C398        C493   1.479       .  S
O399       Ni415   1.911       .  S
O399        C405   1.274       .  A
O400        C405   1.277       .  A
C401        C549   1.483       .  S
O402        C404   1.264       .  A
O403       Ni414   1.921       .  S
C404        O410   1.270       .  A
C404        C509   1.468       .  S
C405        C597   1.478       .  S
H406        O407   0.966       .  S
O407       Ni415   1.897       .  S
O407       Ni409   1.917   1_545  S
O407       Ni414   1.889   1_545  S
O408       Ni409   1.933       .  S
Ni409       O413   1.949       .  S
Ni409       O411   1.934       .  S
O410       Ni415   1.929       .  S
C412        O413   1.277   1_545  A
C412        C709   1.489       .  S
O417       Ni423   1.906       .  S
O417        C438   1.263   1_655  A
O418       Ni441   1.913       .  S
O418        C427   1.269       .  A
O419       Ni423   1.896       .  S
O419       Ni441   1.909       .  S
O419       Ni435   1.922   1_655  S
O419        H442   0.968   1_655  S
C420        O437   1.283       .  A
C420        O429   1.280       .  A
C420        C485   1.479       .  S
O421       Ni440   1.941       .  S
O421        C427   1.275   1_455  A
O422       Ni440   1.900       .  S
O422        C424   1.269       .  A
Ni423       O426   1.921       .  S
Ni423       O428   1.885       .  S
C424        O434   1.270       .  A
C424        C589   1.477       .  S
O425       Ni441   1.902       .  S
O425        C431   1.271       .  A
O426        C431   1.277       .  A
C427        C469   1.492       .  S
O428        C430   1.264       .  A
O429       Ni440   1.918       .  S
C430        O436   1.274       .  A
C430        C565   1.475       .  S
C431        C501   1.468       .  S
H432        O433   0.967       .  S
O433       Ni441   1.900   1_455  S
O433       Ni435   1.908       .  S
O433       Ni440   1.884       .  S
O434       Ni435   1.924       .  S
Ni435       O439   1.933       .  S
Ni435       O437   1.934       .  S
O436       Ni441   1.943       .  S
C438        O439   1.272       .  A
C438        C901   1.481       .  S
O443       Ni449   1.899       .  S
O443        C464   1.261       .  A
O444       Ni467   1.899       .  S
O444        C453   1.267       .  A
O445       Ni449   1.889       .  S
O445       Ni467   1.896       .  S
O445       Ni461   1.915       .  S
O445        H468   0.966       .  S
C446        O463   1.278       .  A
C446        O455   1.286       .  A
C446        C669   1.482       .  S
O447       Ni466   1.962       .  S
O447        C453   1.281       .  A
O448       Ni466   1.905       .  S
O448        C450   1.271       .  A
Ni449       O452   1.906       .  S
Ni449       O454   1.899       .  S
C450        O460   1.274       .  A
C450        C525   1.483   1_655  S
O451       Ni467   1.924       .  S
O451        C457   1.277       .  A
O452        C457   1.276       .  A
C453        C477   1.491       .  S
O454        C456   1.267       .  A
O455       Ni466   1.948       .  S
C456        O462   1.271       .  A
C456        C533   1.475       .  S
C457        C685   1.478       .  S
H458        O459   0.966       .  S
O459       Ni467   1.904       .  S
O459       Ni461   1.912       .  S
O459       Ni466   1.889       .  S
O460       Ni461   1.937       .  S
Ni461       O465   1.936       .  S
Ni461       O463   1.909       .  S
O462       Ni467   1.931       .  S
C464        O465   1.273       .  A
C464       C1237   1.478       .  S
C469        C470   1.408   1_655  A
C469        C474   1.410       .  A
C470        C471   1.398       .  A
C470        H479   1.083       .  S
C471        C472   1.401   1_455  A
C471        H480   1.084       .  S
C472        C478   1.409       .  A
C472        C473   1.414       .  A
C473        C475   1.404       .  A
C473        C474   1.413       .  A
C474        H481   1.084       .  S
C475        C476   1.403       .  A
C475        H482   1.083       .  S
C476        C477   1.408       .  A
C476        H483   1.083       .  S
C477        C478   1.408       .  A
C478        H484   1.084       .  S
C485        C486   1.405       .  A
C485        C490   1.406       .  A
C486        C487   1.401       .  A
C486        H495   1.083       .  S
C487        C488   1.405       .  A
C487        H496   1.083       .  S
C488        C494   1.407       .  A
C488        C489   1.414       .  A
C489        C491   1.400       .  A
C489        C490   1.400       .  A
C490        H497   1.085       .  S
C491        C492   1.394       .  A
C491        H498   1.084       .  S
C492        C493   1.406       .  A
C492        H499   1.083       .  S
C493        C494   1.408       .  A
C494        H500   1.084       .  S
C501        C502   1.406       .  A
C501        C506   1.400       .  A
C502        C503   1.397       .  A
C502        H511   1.084       .  S
C503        C504   1.401       .  A
C503        H512   1.084       .  S
C504        C510   1.405       .  A
C504        C505   1.417       .  A
C505        C507   1.397       .  A
C505        C506   1.398       .  A
C506        H513   1.085       .  S
C507        C508   1.391       .  A
C507        H514   1.084       .  S
C508        C509   1.405       .  A
C508        H515   1.084       .  S
C509        C510   1.402       .  A
C510        H516   1.084       .  S
C517        C518   1.406       .  A
C517        C522   1.405       .  A
C518        C519   1.404       .  A
C518        H527   1.083       .  S
C519        C520   1.406       .  A
C519        H528   1.083       .  S
C520        C526   1.411       .  A
C520        C521   1.414       .  A
C521        C523   1.400       .  A
C521        C522   1.402       .  A
C522        H529   1.085       .  S
C523        C524   1.394       .  A
C523        H530   1.084       .  S
C524        C525   1.406       .  A
C524        H531   1.083       .  S
C525        C526   1.411       .  A
C526        H532   1.084       .  S
C533        C534   1.406       .  A
C533        C538   1.407       .  A
C534        C535   1.389       .  A
C534        H543   1.084       .  S
C535        C536   1.397       .  A
C535        H544   1.084       .  S
C536        C542   1.397       .  A
C536        C537   1.415       .  A
C537        C539   1.405       .  A
C537        C538   1.410       .  A
C538        H545   1.084       .  S
C539        C540   1.403       .  A
C539        H546   1.083       .  S
C540        C541   1.407       .  A
C540        H547   1.083       .  S
C541        C542   1.403       .  A
C542        H548   1.085       .  S
C549        C550   1.405       .  A
C549        C554   1.406       .  A
C550        C551   1.403       .  A
C550        H559   1.083       .  S
C551        C552   1.405       .  A
C551        H560   1.083       .  S
C552        C558   1.411       .  A
C552        C553   1.414       .  A
C553        C555   1.401       .  A
C553        C554   1.405       .  A
C554        H561   1.084       .  S
C555        C556   1.397       .  A
C555        H562   1.084       .  S
C556        C557   1.407       .  A
C556        H563   1.083       .  S
C557        C558   1.412       .  A
C558        H564   1.084       .  S
C565        C566   1.407       .  A
C565        C570   1.403       .  A
C566        C567   1.392       .  A
C566        H575   1.084       .  S
C567        C568   1.398       .  A
C567        H576   1.084       .  S
C568        C574   1.403       .  A
C568        C569   1.416       .  A
C569        C571   1.400       .  A
C569        C570   1.408       .  A
C570        H577   1.084       .  S
C571        C572   1.398       .  A
C571        H578   1.084       .  S
C572        C573   1.410       .  A
C572        H579   1.083       .  S
C573        C574   1.404       .  A
C574        H580   1.084       .  S
C581        C582   1.407       .  A
C581        C586   1.408       .  A
C582        C583   1.386       .  A
C582        H591   1.084       .  S
C583        C584   1.394       .  A
C583        H592   1.084       .  S
C584        C590   1.394       .  A
C584        C585   1.415       .  A
C585        C587   1.406       .  A
C585        C586   1.411       .  A
C586        H593   1.084       .  S
C587        C588   1.404       .  A
C587        H594   1.083       .  S
C588        C589   1.407       .  A
C588        H595   1.083       .  S
C589        C590   1.400       .  A
C590        H596   1.085       .  S
C597        C598   1.408       .  A
C597        C602   1.402       .  A
C598        C599   1.398       .  A
C598        H607   1.083       .  S
C599        C600   1.401       .  A
C599        H608   1.084       .  S
C600        C606   1.405       .  A
C600        C601   1.416       .  A
C601        C603   1.396       .  A
C601        C602   1.396       .  A
C602        H609   1.084       .  S
C603        C604   1.388       .  A
C603        H610   1.084       .  S
C604        C605   1.406       .  A
C604        H611   1.084       .  S
C605        C606   1.403       .  A
C606        H612   1.084       .  S
C613        C614   1.407       .  A
C613        C618   1.409       .  A
C614        C615   1.390       .  A
C614        H623   1.083       .  S
C615        C616   1.397       .  A
C615        H624   1.084       .  S
C616        C622   1.401       .  A
C616        C617   1.415       .  A
C617        C619   1.404       .  A
C617        C618   1.413       .  A
C618        H625   1.084       .  S
C619        C620   1.404       .  A
C619        H626   1.083       .  S
C620        C621   1.409       .  A
C620        H627   1.083       .  S
C621        C622   1.404       .  A
C622        H628   1.084       .  S
C629        C630   1.406       .  A
C629        C634   1.404   1_545  A
C630        C631   1.404   1_545  A
C630        H639   1.083       .  S
C631        C632   1.405       .  A
C631        H640   1.083       .  S
C632        C638   1.414       .  A
C632        C633   1.415       .  A
C633        C635   1.398       .  A
C633        C634   1.404       .  A
C634        H641   1.085       .  S
C635        C636   1.393       .  A
C635        H642   1.084       .  S
C636        C637   1.408       .  A
C636        H643   1.083       .  S
C637        C638   1.410       .  A
C638        H644   1.084       .  S
C645        C646   1.404       .  A
C645        C650   1.405       .  A
C646        C647   1.399       .  A
C646        H655   1.083       .  S
C647        C648   1.404       .  A
C647        H656   1.084       .  S
C648        C654   1.407       .  A
C648        C649   1.415       .  A
C649        C651   1.400       .  A
C649        C650   1.403       .  A
C650        H657   1.085       .  S
C651        C652   1.396       .  A
C651        H658   1.084       .  S
C652        C653   1.407       .  A
C652        H659   1.083       .  S
C653        C654   1.407       .  A
C654        H660   1.084       .  S
C661        C662   1.409       .  A
C661        C666   1.406       .  A
C662        C663   1.393       .  A
C662        H671   1.084       .  S
C663        C664   1.398       .  A
C663        H672   1.084       .  S
C664        C670   1.405   1_565  A
C664        C665   1.416       .  A
C665        C667   1.403       .  A
C665        C666   1.412       .  A
C666        H673   1.084       .  S
C667        C668   1.401   1_565  A
C667        H674   1.083       .  S
C668        C669   1.407       .  A
C668        H675   1.083       .  S
C669        C670   1.404       .  A
C670        H676   1.084       .  S
C677        C678   1.407       .  A
C677        C682   1.405       .  A
C678        C679   1.387       .  A
C678        H687   1.084       .  S
C679        C680   1.396       .  A
C679        H688   1.084       .  S
C680        C686   1.394       .  A
C680        C681   1.415       .  A
C681        C683   1.403       .  A
C681        C682   1.407       .  A
C682        H689   1.084       .  S
C683        C684   1.400       .  A
C683        H690   1.083       .  S
C684        C685   1.408       .  A
C684        H691   1.083       .  S
C685        C686   1.403       .  A
C686        H692   1.085       .  S
C693        C694   1.406       .  A
C693        C698   1.403       .  A
C694        C695   1.401       .  A
C694        H703   1.083       .  S
C695        C696   1.404       .  A
C695        H704   1.083       .  S
C696        C702   1.410       .  A
C696        C697   1.415       .  A
C697        C699   1.397       .  A
C697        C698   1.401       .  A
C698        H705   1.085       .  S
C699        C700   1.392       .  A
C699        H706   1.084       .  S
C700        C701   1.408       .  A
C700        H707   1.083       .  S
C701        C702   1.408       .  A
C702        H708   1.084       .  S
C709        C710   1.403   1_545  A
C709        C714   1.416       .  A
C710        C711   1.403       .  A
C710        H719   1.083       .  S
C711        C712   1.408   1_556  A
C711        H720   1.083       .  S
C712        C718   1.403       .  A
C712        C713   1.407   1_564  A
C713        C715   1.408   1_556  A
C713        C714   1.402       .  A
C714        H721   1.084       .  S
C715        C716   1.402       .  A
C715        H722   1.083       .  S
C716        C717   1.402       .  A
C716        H723   1.083       .  S
C717        C718   1.416   1_545  A
C718        H724   1.084       .  S
C725        C726   1.403       .  A
C725        C730   1.403       .  A
C726        C727   1.401       .  A
C726        H735   1.083       .  S
C727        C728   1.405       .  A
C727        H736   1.083       .  S
C728        C734   1.407       .  A
C728        C729   1.414       .  A
C729        C731   1.400       .  A
C729        C730   1.401       .  A
C730        H737   1.085   1_565  S
C731        C732   1.394       .  A
C731        H738   1.084   1_565  S
C732        C733   1.407       .  A
C732        H739   1.083       .  S
C733        C734   1.409       .  A
C734        H740   1.084       .  S
C741        C742   1.401       .  A
C741        C746   1.414       .  A
C742        C743   1.398       .  A
C742        H751   1.083       .  S
C743        C744   1.406   1_554  A
C743        H752   1.084   1_554  S
C744        C750   1.398       .  A
C744        C745   1.408   1_556  A
C745        C747   1.408   1_554  A
C745        C746   1.401       .  A
C746        H753   1.084       .  S
C747        C748   1.402       .  A
C747        H754   1.083       .  S
C748        C749   1.403       .  A
C748        H755   1.083       .  S
C749        C750   1.413       .  A
C750        H756   1.084       .  S
C757        C758   1.406       .  A
C757        C762   1.406       .  A
C758        C759   1.387       .  A
C758        H767   1.083       .  S
C759        C760   1.396       .  A
C759        H768   1.084       .  S
C760        C766   1.392       .  A
C760        C761   1.414       .  A
C761        C763   1.404       .  A
C761        C762   1.405       .  A
C762        H769   1.084       .  S
C763        C764   1.401       .  A
C763        H770   1.083       .  S
C764        C765   1.406       .  A
C764        H771   1.083       .  S
C765        C766   1.403       .  A
C766        H772   1.085       .  S
C773        C774   1.407       .  A
C773        C778   1.409       .  A
C774        C775   1.391       .  A
C774        H783   1.083       .  S
C775        C776   1.398       .  A
C775        H784   1.084       .  S
C776        C782   1.399       .  A
C776        C777   1.414       .  A
C777        C779   1.405       .  A
C777        C778   1.409       .  A
C778        H785   1.084       .  S
C779        C780   1.402       .  A
C779        H786   1.083       .  S
C780        C781   1.406       .  A
C780        H787   1.083       .  S
C781        C782   1.404       .  A
C782        H788   1.085       .  S
C789        C790   1.405   1_455  A
C789        C794   1.406   1_455  A
C790        C791   1.391       .  A
C790        H799   1.083   1_655  S
C791        C792   1.398       .  A
C791        H800   1.084       .  S
C792        C798   1.399       .  A
C792        C793   1.415       .  A
C793        C795   1.403       .  A
C793        C794   1.409       .  A
C794        H801   1.084   1_655  S
C795        C796   1.401       .  A
C795        H802   1.084       .  S
C796        C797   1.408       .  A
C796        H803   1.083       .  S
C797        C798   1.403       .  A
C798        H804   1.085       .  S
C805        C806   1.405       .  A
C805        C810   1.401       .  A
C806        C807   1.400       .  A
C806        H815   1.083       .  S
C807        C808   1.404       .  A
C807        H816   1.084       .  S
C808        C814   1.404       .  A
C808        C809   1.415       .  A
C809        C811   1.398       .  A
C809        C810   1.395       .  A
C810        H817   1.085       .  S
C811        C812   1.390       .  A
C811        H818   1.084       .  S
C812        C813   1.403       .  A
C812        H819   1.083       .  S
C813        C814   1.406       .  A
C814        H820   1.085       .  S
C821        C822   1.409       .  A
C821        C826   1.409       .  A
C822        C823   1.398       .  A
C822        H831   1.083       .  S
C823        C824   1.400       .  A
C823        H832   1.084       .  S
C824        C830   1.409       .  A
C824        C825   1.415       .  A
C825        C827   1.403       .  A
C825        C826   1.411       .  A
C826        H833   1.084       .  S
C827        C828   1.401       .  A
C827        H834   1.084       .  S
C828        C829   1.407       .  A
C828        H835   1.083       .  S
C829        C830   1.406       .  A
C830        H836   1.084       .  S
C837        C838   1.407       .  A
C837        C842   1.405       .  A
C838        C839   1.406       .  A
C838        H847   1.083       .  S
C839        C840   1.406       .  A
C839        H848   1.083       .  S
C840        C846   1.415       .  A
C840        C841   1.414       .  A
C841        C843   1.398       .  A
C841        C842   1.401       .  A
C842        H849   1.085       .  S
C843        C844   1.392       .  A
C843        H850   1.084       .  S
C844        C845   1.407       .  A
C844        H851   1.083       .  S
C845        C846   1.411       .  A
C846        H852   1.084       .  S
C853        C854   1.405       .  A
C853        C858   1.412       .  A
C854        C855   1.395       .  A
C854        H863   1.083       .  S
C855        C856   1.401       .  A
C855        H864   1.084       .  S
C856        C862   1.401       .  A
C856        C857   1.412       .  A
C857        C859   1.407       .  A
C857        C858   1.408       .  A
C858        H865   1.084       .  S
C859        C860   1.403       .  A
C859        H866   1.083       .  S
C860        C861   1.403       .  A
C860        H867   1.083       .  S
C861        C862   1.405       .  A
C862        H868   1.085       .  S
C869        C870   1.408       .  A
C869        C874   1.405   1_455  A
C870        C871   1.405   1_455  A
C870        H879   1.083       .  S
C871        C872   1.406       .  A
C871        H880   1.083       .  S
C872        C878   1.412       .  A
C872        C873   1.413       .  A
C873        C875   1.397       .  A
C873        C874   1.398       .  A
C874        H881   1.084   1_655  S
C875        C876   1.390       .  A
C875        H882   1.084       .  S
C876        C877   1.407       .  A
C876        H883   1.083       .  S
C877        C878   1.411       .  A
C878        H884   1.084       .  S
C885        C886   1.407       .  A
C885        C890   1.407       .  A
C886        C887   1.386       .  A
C886        H895   1.083       .  S
C887        C888   1.395       .  A
C887        H896   1.084       .  S
C888        C894   1.393       .  A
C888        C889   1.414       .  A
C889        C891   1.404       .  A
C889        C890   1.407       .  A
C890        H897   1.084       .  S
C891        C892   1.401       .  A
C891        H898   1.083       .  S
C892        C893   1.408       .  A
C892        H899   1.083       .  S
C893        C894   1.402       .  A
C894        H900   1.085       .  S
C901        C902   1.403       .  A
C901        C906   1.411   1_455  A
C902        C903   1.402       .  A
C902        H911   1.083       .  S
C903        C904   1.407   1_556  A
C903        H912   1.083   1_556  S
C904        C910   1.402       .  A
C904        C905   1.409   1_455  A
C905        C907   1.404       .  A
C905        C906   1.398   1_554  A
C906        H913   1.084       .  S
C907        C908   1.398       .  A
C907        H914   1.084       .  S
C908        C909   1.403   1_655  A
C908        H915   1.083       .  S
C909        C910   1.412       .  A
C910        H916   1.084       .  S
C917        C918   1.406       .  A
C917        C922   1.399       .  A
C918        C919   1.401       .  A
C918        H927   1.083       .  S
C919        C920   1.403       .  A
C919        H928   1.083       .  S
C920        C926   1.409       .  A
C920        C921   1.417       .  A
C921        C923   1.396       .  A
C921        C922   1.398       .  A
C922        H929   1.085       .  S
C923        C924   1.389       .  A
C923        H930   1.084       .  S
C924        C925   1.407       .  A
C924        H931   1.084       .  S
C925        C926   1.405       .  A
C926        H932   1.084       .  S
C933        C934   1.405       .  A
C933        C938   1.409       .  A
C934        C935   1.391       .  A
C934        H943   1.084       .  S
C935        C936   1.398       .  A
C935        H944   1.084       .  S
C936        C942   1.399       .  A
C936        C937   1.415       .  A
C937        C939   1.407       .  A
C937        C938   1.412       .  A
C938        H945   1.084       .  S
C939        C940   1.405       .  A
C939        H946   1.083       .  S
C940        C941   1.405       .  A
C940        H947   1.083       .  S
C941        C942   1.403       .  A
C942        H948   1.085       .  S
C949        C950   1.406       .  A
C949        C954   1.412       .  A
C950        C951   1.395       .  A
C950        H959   1.083       .  S
C951        C952   1.400       .  A
C951        H960   1.084       .  S
C952        C958   1.403       .  A
C952        C953   1.413       .  A
C953        C955   1.407       .  A
C953        C954   1.411       .  A
C954        H961   1.084       .  S
C955        C956   1.405       .  A
C955        H962   1.083       .  S
C956        C957   1.404       .  A
C956        H963   1.083       .  S
C957        C958   1.405       .  A
C958        H964   1.085       .  S
C965        C966   1.406       .  A
C965        C970   1.402       .  A
C966        C967   1.401       .  A
C966        H975   1.083       .  S
C967        C968   1.403       .  A
C967        H976   1.083       .  S
C968        C974   1.411       .  A
C968        C969   1.416       .  A
C969        C971   1.398       .  A
C969        C970   1.403       .  A
C970        H977   1.085       .  S
C971        C972   1.393       .  A
C971        H978   1.084       .  S
C972        C973   1.407       .  A
C972        H979   1.084       .  S
C973        C974   1.406       .  A
C974        H980   1.084       .  S
C981        C982   1.408   1_455  A
C981        C986   1.405       .  A
C982        C983   1.401   1_655  A
C982        H991   1.083       .  S
C983        C984   1.404       .  A
C983        H992   1.084   1_455  S
C984        C990   1.408       .  A
C984        C985   1.413       .  A
C985        C987   1.401       .  A
C985        C986   1.403       .  A
C986        H993   1.084       .  S
C987        C988   1.396       .  A
C987        H994   1.084       .  S
C988        C989   1.404       .  A
C988        H995   1.083       .  S
C989        C990   1.410       .  A
C990        H996   1.084       .  S
C997        C998   1.400       .  A
C997       C1002   1.417       .  A
C998        C999   1.400       .  A
C998       H1007   1.083       .  S
C999       C1000   1.406       .  A
C999       H1008   1.083       .  S
C1000      C1006   1.399       .  A
C1000      C1001   1.408       .  A
C1001      C1003   1.410       .  A
C1001      C1002   1.403       .  A
C1002      H1009   1.084       .  S
C1003      C1004   1.405       .  A
C1003      H1010   1.084       .  S
C1004      C1005   1.403       .  A
C1004      H1011   1.083       .  S
C1005      C1006   1.411       .  A
C1006      H1012   1.084       .  S
C1013      C1014   1.402       .  A
C1013      C1018   1.415       .  A
C1014      C1015   1.402       .  A
C1014      H1023   1.083       .  S
C1015      C1016   1.407       .  A
C1015      H1024   1.083       .  S
C1016      C1022   1.404       .  A
C1016      C1017   1.409       .  A
C1017      C1019   1.408       .  A
C1017      C1018   1.405       .  A
C1018      H1025   1.084       .  S
C1019      C1020   1.404       .  A
C1019      H1026   1.083       .  S
C1020      C1021   1.403       .  A
C1020      H1027   1.083       .  S
C1021      C1022   1.414       .  A
C1022      H1028   1.084       .  S
C1029      C1030   1.407       .  A
C1029      C1034   1.408       .  A
C1030      C1031   1.401       .  A
C1030      H1039   1.083       .  S
C1031      C1032   1.403       .  A
C1031      H1040   1.084       .  S
C1032      C1038   1.412       .  A
C1032      C1033   1.415       .  A
C1033      C1035   1.402       .  A
C1033      C1034   1.410       .  A
C1034      H1041   1.084       .  S
C1035      C1036   1.399       .  A
C1035      H1042   1.084       .  S
C1036      C1037   1.408       .  A
C1036      H1043   1.083       .  S
C1037      C1038   1.410       .  A
C1038      H1044   1.084       .  S
C1045      C1046   1.403       .  A
C1045      C1050   1.413       .  A
C1046      C1047   1.402       .  A
C1046      H1055   1.083       .  S
C1047      C1048   1.407       .  A
C1047      H1056   1.084       .  S
C1048      C1054   1.403       .  A
C1048      C1049   1.409       .  A
C1049      C1051   1.407       .  A
C1049      C1050   1.403       .  A
C1050      H1057   1.084       .  S
C1051      C1052   1.402       .  A
C1051      H1058   1.083       .  S
C1052      C1053   1.403       .  A
C1052      H1059   1.083       .  S
C1053      C1054   1.415       .  A
C1054      H1060   1.084       .  S
C1061      C1062   1.408       .  A
C1061      C1066   1.412   1_655  A
C1062      C1063   1.386   1_655  A
C1062      H1071   1.083       .  S
C1063      C1064   1.395       .  A
C1063      H1072   1.084       .  S
C1064      C1070   1.394       .  A
C1064      C1065   1.413       .  A
C1065      C1067   1.407       .  A
C1065      C1066   1.413       .  A
C1066      H1073   1.084   1_455  S
C1067      C1068   1.407       .  A
C1067      H1074   1.083       .  S
C1068      C1069   1.408       .  A
C1068      H1075   1.083       .  S
C1069      C1070   1.404       .  A
C1070      H1076   1.084       .  S
C1077      C1078   1.409       .  A
C1077      C1082   1.409       .  A
C1078      C1079   1.393       .  A
C1078      H1087   1.083       .  S
C1079      C1080   1.398       .  A
C1079      H1088   1.084       .  S
C1080      C1086   1.404       .  A
C1080      C1081   1.415       .  A
C1081      C1083   1.404       .  A
C1081      C1082   1.413       .  A
C1082      H1089   1.084       .  S
C1083      C1084   1.403       .  A
C1083      H1090   1.083       .  S
C1084      C1085   1.408       .  A
C1084      H1091   1.083       .  S
C1085      C1086   1.405       .  A
C1086      H1092   1.084       .  S
C1093      C1094   1.402       .  A
C1093      C1098   1.411       .  A
C1094      C1095   1.400       .  A
C1094      H1103   1.083       .  S
C1095      C1096   1.407       .  A
C1095      H1104   1.084       .  S
C1096      C1102   1.401       .  A
C1096      C1097   1.409       .  A
C1097      C1099   1.406       .  A
C1097      C1098   1.401       .  A
C1098      H1105   1.084       .  S
C1099      C1100   1.401       .  A
C1099      H1106   1.083       .  S
C1100      C1101   1.402       .  A
C1100      H1107   1.083       .  S
C1101      C1102   1.415       .  A
C1102      H1108   1.084       .  S
C1109      C1110   1.406       .  A
C1109      C1114   1.402       .  A
C1110      C1111   1.400       .  A
C1110      H1119   1.083       .  S
C1111      C1112   1.403       .  A
C1111      H1120   1.083       .  S
C1112      C1118   1.406   1_655  A
C1112      C1113   1.415       .  A
C1113      C1115   1.397       .  A
C1113      C1114   1.396       .  A
C1114      H1121   1.085       .  S
C1115      C1116   1.389   1_655  A
C1115      H1122   1.084       .  S
C1116      C1117   1.405       .  A
C1116      H1123   1.084       .  S
C1117      C1118   1.405       .  A
C1118      H1124   1.084       .  S
C1125      C1126   1.408       .  A
C1125      C1130   1.409       .  A
C1126      C1127   1.391       .  A
C1126      H1135   1.083       .  S
C1127      C1128   1.397       .  A
C1127      H1136   1.084       .  S
C1128      C1134   1.400       .  A
C1128      C1129   1.414       .  A
C1129      C1131   1.405       .  A
C1129      C1130   1.411       .  A
C1130      H1137   1.084       .  S
C1131      C1132   1.403       .  A
C1131      H1138   1.083       .  S
C1132      C1133   1.408       .  A
C1132      H1139   1.083       .  S
C1133      C1134   1.405       .  A
C1134      H1140   1.084       .  S
C1141      C1142   1.406       .  A
C1141      C1146   1.406       .  A
C1142      C1143   1.398       .  A
C1142      H1151   1.083       .  S
C1143      C1144   1.402       .  A
C1143      H1152   1.084       .  S
C1144      C1150   1.405   1_565  A
C1144      C1145   1.414       .  A
C1145      C1147   1.401       .  A
C1145      C1146   1.403       .  A
C1146      H1153   1.084       .  S
C1147      C1148   1.396   1_565  A
C1147      H1154   1.084       .  S
C1148      C1149   1.406       .  A
C1148      H1155   1.083       .  S
C1149      C1150   1.406       .  A
C1150      H1156   1.084       .  S
C1157      C1158   1.402       .  A
C1157      C1162   1.413       .  A
C1158      C1159   1.402       .  A
C1158      H1167   1.083       .  S
C1159      C1160   1.408       .  A
C1159      H1168   1.084       .  S
C1160      C1166   1.400       .  A
C1160      C1161   1.408       .  A
C1161      C1163   1.406       .  A
C1161      C1162   1.398       .  A
C1162      H1169   1.084       .  S
C1163      C1164   1.400       .  A
C1163      H1170   1.084       .  S
C1164      C1165   1.402       .  A
C1164      H1171   1.083       .  S
C1165      C1166   1.415       .  A
C1166      H1172   1.084       .  S
C1173      C1174   1.403       .  A
C1173      C1178   1.405       .  A
C1174      C1175   1.387       .  A
C1174      H1183   1.084       .  S
C1175      C1176   1.397       .  A
C1175      H1184   1.084       .  S
C1176      C1182   1.392       .  A
C1176      C1177   1.414       .  A
C1177      C1179   1.404       .  A
C1177      C1178   1.405       .  A
C1178      H1185   1.084       .  S
C1179      C1180   1.401       .  A
C1179      H1186   1.084       .  S
C1180      C1181   1.407       .  A
C1180      H1187   1.083       .  S
C1181      C1182   1.402       .  A
C1182      H1188   1.085       .  S
C1189      C1190   1.406       .  A
C1189      C1194   1.408       .  A
C1190      C1191   1.391       .  A
C1190      H1199   1.083       .  S
C1191      C1192   1.398       .  A
C1191      H1200   1.084       .  S
C1192      C1198   1.395       .  A
C1192      C1193   1.414       .  A
C1193      C1195   1.405       .  A
C1193      C1194   1.405       .  A
C1194      H1201   1.084       .  S
C1195      C1196   1.401       .  A
C1195      H1202   1.083       .  S
C1196      C1197   1.404       .  A
C1196      H1203   1.083       .  S
C1197      C1198   1.401       .  A
C1198      H1204   1.085       .  S
C1205      C1206   1.407       .  A
C1205      C1210   1.415       .  A
C1206      C1207   1.391       .  A
C1206      H1215   1.083       .  S
C1207      C1208   1.398       .  A
C1207      H1216   1.084       .  S
C1208      C1214   1.398       .  A
C1208      C1209   1.412       .  A
C1209      C1211   1.409       .  A
C1209      C1210   1.416       .  A
C1210      H1217   1.084       .  S
C1211      C1212   1.409       .  A
C1211      H1218   1.083       .  S
C1212      C1213   1.406       .  A
C1212      H1219   1.083       .  S
C1213      C1214   1.407       .  A
C1214      H1220   1.085       .  S
C1221      C1222   1.406       .  A
C1221      C1226   1.408       .  A
C1222      C1223   1.395       .  A
C1222      H1231   1.083       .  S
C1223      C1224   1.400       .  A
C1223      H1232   1.084       .  S
C1224      C1230   1.401       .  A
C1224      C1225   1.414       .  A
C1225      C1227   1.404       .  A
C1225      C1226   1.405       .  A
C1226      H1233   1.084       .  S
C1227      C1228   1.400   1_545  A
C1227      H1234   1.084       .  S
C1228      C1229   1.404       .  A
C1228      H1235   1.083       .  S
C1229      C1230   1.405   1_565  A
C1230      H1236   1.085       .  S
C1237      C1238   1.401       .  A
C1237      C1242   1.412       .  A
C1238      C1239   1.400       .  A
C1238      H1247   1.083       .  S
C1239      C1240   1.407       .  A
C1239      H1248   1.084       .  S
C1240      C1246   1.400       .  A
C1240      C1241   1.409       .  A
C1241      C1243   1.407       .  A
C1241      C1242   1.400       .  A
C1242      H1249   1.084       .  S
C1243      C1244   1.401       .  A
C1243      H1250   1.084       .  S
C1244      C1245   1.403       .  A
C1244      H1251   1.083       .  S
C1245      C1246   1.413       .  A
C1246      H1252   1.084       .  S
C1253      C1254   1.406       .  A
C1253      C1258   1.407       .  A
C1254      C1255   1.394       .  A
C1254      H1263   1.084       .  S
C1255      C1256   1.400       .  A
C1255      H1264   1.084       .  S
C1256      C1262   1.403       .  A
C1256      C1257   1.415       .  A
C1257      C1259   1.404       .  A
C1257      C1258   1.409       .  A
C1258      H1265   1.084       .  S
C1259      C1260   1.401       .  A
C1259      H1266   1.083       .  S
C1260      C1261   1.406       .  A
C1260      H1267   1.083       .  S
C1261      C1262   1.405       .  A
C1262      H1268   1.084       .  S
C1269      C1270   1.406       .  A
C1269      C1274   1.407       .  A
C1270      C1271   1.390   1_545  A
C1270      H1279   1.084       .  S
C1271      C1272   1.398       .  A
C1271      H1280   1.084       .  S
C1272      C1278   1.399       .  A
C1272      C1273   1.415       .  A
C1273      C1275   1.404       .  A
C1273      C1274   1.411   1_565  A
C1274      H1281   1.084       .  S
C1275      C1276   1.402       .  A
C1275      H1282   1.083       .  S
C1276      C1277   1.409       .  A
C1276      H1283   1.083       .  S
C1277      C1278   1.405       .  A
C1278      H1284   1.084       .  S
C1285      C1286   1.406       .  A
C1285      C1290   1.409       .  A
C1286      C1287   1.393       .  A
C1286      H1295   1.084       .  S
C1287      C1288   1.398       .  A
C1287      H1296   1.084       .  S
C1288      C1294   1.403       .  A
C1288      C1289   1.415       .  A
C1289      C1291   1.406       .  A
C1289      C1290   1.414       .  A
C1290      H1297   1.084       .  S
C1291      C1292   1.405       .  A
C1291      H1298   1.083       .  S
C1292      C1293   1.407       .  A
C1292      H1299   1.083       .  S
C1293      C1294   1.404       .  A
C1294      H1300   1.085       .  S
C1301      C1302   1.405       .  A
C1301      C1306   1.403       .  A
C1302      C1303   1.403       .  A
C1302      H1311   1.083       .  S
C1303      C1304   1.406       .  A
C1303      H1312   1.083       .  S
C1304      C1310   1.408       .  A
C1304      C1305   1.414       .  A
C1305      C1307   1.398       .  A
C1305      C1306   1.396       .  A
C1306      H1313   1.085       .  S
C1307      C1308   1.390       .  A
C1307      H1314   1.084       .  S
C1308      C1309   1.404       .  A
C1308      H1315   1.084       .  S
C1309      C1310   1.408       .  A
C1310      H1316   1.084       .  S
C1317      C1318   1.408       .  A
C1317      C1322   1.412       .  A
C1318      C1319   1.394       .  A
C1318      H1327   1.083       .  S
C1319      C1320   1.399   1_655  A
C1319      H1328   1.084       .  S
C1320      C1326   1.402       .  A
C1320      C1321   1.414       .  A
C1321      C1323   1.407       .  A
C1321      C1322   1.412   1_455  A
C1322      H1329   1.084       .  S
C1323      C1324   1.405       .  A
C1323      H1330   1.083       .  S
C1324      C1325   1.405       .  A
C1324      H1331   1.083       .  S
C1325      C1326   1.403       .  A
C1326      H1332   1.085       .  S
