geometry optimzed in LAMMPS
_audit_creation_date              2020-12-01 
_audit_creation_method            'lammps2cif' 
_symmetry_space_group_name_H-M    'P1' 
_symmetry_Int_Tables_number       1 
_symmetry_cell_setting            triclinic 
loop_ 
_symmetry_equiv_pos_as_xyz 
  x,y,z 
_cell_length_a                    43.39409768 
_cell_length_b                    43.32311014260348 
_cell_length_c                    64.71590681446762 
_cell_angle_alpha                 89.76749046101259 
_cell_angle_beta                  89.86227666990379 
_cell_angle_gamma                 120.0431609405475 
loop_ 
_atom_site_label 
_atom_site_type_symbol 
_atom_site_fract_x 
_atom_site_fract_y 
_atom_site_fract_z 
_atom_site_charge 
Zn1        Zn  0.48428117  0.14897647  0.57000474     1.49700
Zn2        Zn  0.41360685  0.07666513  0.55716005     1.49400
Zn3        Zn  0.45542001  0.08195390  0.59825167     1.49100
Zn4        Zn  0.41390425  0.12215058  0.59585930     1.49500
O5          O  0.44141693  0.10729327  0.57996398    -1.80000
O6          O  0.49221753  0.14203446  0.54065297    -0.70600
O7          O  0.39919618  0.02534673  0.56405757    -0.70400
O8          O  0.00528205  0.09583058  0.59150034    -0.70000
O9          O  0.44397655  0.09280680  0.52993421    -0.70600
O10         O  0.02853961  0.15326410  0.58306724    -0.70200
O11         O  0.42385585  0.02957797  0.59483250    -0.70800
O12         O  0.42246993  0.12173576  0.62690016    -0.70200
O13         O  0.36523028  0.07439885  0.55649096    -0.71000
O14         O  0.45357806  0.09370351  0.62789738    -0.70400
O15         O  0.36245426  0.09058091  0.58893184    -0.70800
O16         O  0.42637969  0.17115357  0.58630517    -0.70700
O17         O  0.47885490  0.19281352  0.57034845    -0.70500
C18         C  0.47532137  0.11936492  0.52672477     0.81300
C19         C  0.40378728  0.01113331  0.58015733     0.81800
C20         C  0.03179970  0.12621670  0.58714736     0.80700
C21         C  0.43915981  0.10927071  0.63691155     0.81100
C22         C  0.34772898  0.07660553  0.57182310     0.82200
C23         C  0.45252297  0.19584032  0.57639239     0.81300
Zn24       Zn  0.10319347  0.17795382  0.40123552     1.49700
Zn25       Zn  0.04603034  0.12272629  0.43120858     1.49400
Zn26       Zn  0.08497832  0.20180398  0.44349245     1.49100
Zn27       Zn  0.02844897  0.17378343  0.40670782     1.49500
O28         O  0.06606284  0.16993004  0.42043425    -1.80000
O29         O  0.11592607  0.13961849  0.40343389    -0.70600
O30         O  0.02923638  0.11977867  0.46047586    -0.70400
O31         O  0.13957007  0.22578004  0.44291240    -0.70000
O32         O  0.07876204  0.10289384  0.42747796    -0.70600
O33         O  0.14775755  0.22236416  0.40898411    -0.70200
O34         O  0.05761532  0.17652807  0.47021021    -0.70800
O35         O  0.03296669  0.22196055  0.41431852    -0.70200
O36         O  0.50132643  0.09236423  0.41650538    -0.71000
O37         O  0.07472949  0.24129739  0.43873373    -0.70400
O38         O  0.48085963  0.13034442  0.41487014    -0.70800
O39         O  0.03343554  0.17059716  0.37544422    -0.70700
O40         O  0.08747579  0.17709692  0.37178039    -0.70500
C41         C  0.10456770  0.11220661  0.41490137     0.81300
C42         C  0.03499628  0.14368176  0.47365902     0.81800
C43         C  0.15961259  0.23495136  0.42683126     0.80700
C44         C  0.05371109  0.24574505  0.42709516     0.81100
C45         C  0.47575778  0.09865888  0.41578643     0.82200
C46         C  0.05837090  0.17226034  0.36413927     0.81300
Zn47       Zn  0.12210319  0.41516377  0.40287062     1.49700
Zn48       Zn  0.08069760  0.45558807  0.40075899     1.49400
Zn49       Zn  0.07726056  0.41454619  0.44226003     1.49100
Zn50       Zn  0.14867935  0.48587460  0.42805347     1.49500
O51         O  0.10702087  0.44245702  0.41885755    -1.80000
O52         O  0.12079869  0.42316556  0.37183031    -0.70600
O53         O  0.02869818  0.42463211  0.40573250    -0.70400
O54         O  0.07395163  0.36553508  0.44250918    -0.70000
O55         O  0.09064815  0.45216404  0.37090695    -0.70600
O56         O  0.09091864  0.36354756  0.41010254    -0.70200
O57         O  0.02592364  0.40100630  0.43679790    -0.70800
O58         O  0.14262501  0.49369537  0.45759451    -0.70200
O59         O  0.09479980  0.00588401  0.40626926    -0.71000
O60         O  0.09475343  0.44467583  0.46931660    -0.70400
O61         O  0.15201222  0.02986225  0.41482128    -0.70800
O62         O  0.19299905  0.48139603  0.42684088    -0.70700
O63         O  0.17151366  0.42845841  0.41168536    -0.70500
C64         C  0.10686529  0.43848255  0.36182227     0.81300
C65         C  0.01100933  0.40536174  0.42100940     0.81800
C66         C  0.07631054  0.34832833  0.42711728     0.80700
C67         C  0.12092382  0.47635724  0.47202442     0.81100
C68         C  0.12496701  0.03272912  0.41029771     0.82200
C69         C  0.19633164  0.45518397  0.42094003     0.81300
Zn70       Zn  0.12356813  0.04853230  0.56667147     1.49700
Zn71       Zn  0.20287165  0.08769383  0.55420492     1.49400
Zn72       Zn  0.17808332  0.10734419  0.59563844     1.49100
Zn73       Zn  0.17462428  0.03240800  0.59211855     1.49500
O74         O  0.17065222  0.06937282  0.57736965    -1.80000
O75         O  0.12121249  0.03044012  0.53787037    -0.70600
O76         O  0.22710954  0.14251869  0.55385534    -0.70400
O77         O  0.13922675  0.11905463  0.59299603    -0.70000
O78         O  0.17791964  0.05953932  0.52783474    -0.70600
O79         O  0.10330439  0.08113744  0.56928483    -0.70200
O80         O  0.22214353  0.15210077  0.58735857    -0.70800
O81         O  0.17276959  0.03966768  0.62309200    -0.70200
O82         O  0.24205579  0.07719291  0.55940930    -0.71000
O83         O  0.17765159  0.09326842  0.62534639    -0.70400
O84         O  0.22211867  0.03576045  0.58433427    -0.70800
O85         O  0.13072757  0.48416386  0.58610916    -0.70700
O86         O  0.09303761  0.50463140  0.58239540    -0.70500
C87         C  0.14527543  0.03631672  0.52467355     0.81300
C88         C  0.23552371  0.16327232  0.56948002     0.81800
C89         C  0.11202137  0.10711567  0.58152897     0.80700
C90         C  0.17389661  0.06494154  0.63370543     0.81100
C91         C  0.24605414  0.05609617  0.57133893     0.82200
C92         C  0.09916808  0.47917959  0.58508953     0.81300
Zn93       Zn  0.33941952  0.36181564  0.43112349     1.49700
Zn94       Zn  0.34071414  0.43431588  0.44341997     1.49400
Zn95       Zn  0.38047136  0.42932282  0.40364411     1.49100
Zn96       Zn  0.29886861  0.39017612  0.40406986     1.49500
O97         O  0.33964175  0.40395719  0.42090813    -1.80000
O98         O  0.35294881  0.36894597  0.46060541    -0.70600
O99         O  0.37684579  0.48569450  0.43664190    -0.70400
O100        O  0.41567871  0.41518262  0.41175530    -0.70000
O101        O  0.35513421  0.41912890  0.47070174    -0.70600
O102        O  0.38050453  0.35750340  0.41932351    -0.70200
O103        O  0.40062415  0.48157495  0.40698097    -0.70800
O104        O  0.31027835  0.39172670  0.37349528    -0.70200
O105        O  0.29421739  0.43582631  0.44340141    -0.71000
O106        O  0.36935593  0.41823288  0.37370407    -0.70400
O107        O  0.27933467  0.42208383  0.41025906    -0.70800
O108        O  0.26105399  0.34109647  0.41252103    -0.70700
O109        O  0.28966369  0.31831291  0.42968999    -0.70500
C110        C  0.35946696  0.39238549  0.47418370     0.81300
C111        C  0.39702526  0.49993255  0.42101810     0.81800
C112        C  0.41126754  0.38458823  0.41611197     0.80700
C113        C  0.33997872  0.40373265  0.36410805     0.81100
C114        C  0.27658230  0.43492581  0.42735418     0.82200
C115        C  0.26111661  0.31586220  0.42259380     0.81300
Zn116      Zn  0.43126771  0.38920783  0.56805674     1.49700
Zn117      Zn  0.39276893  0.31078900  0.55420674     1.49400
Zn118      Zn  0.43342228  0.33300798  0.59648407     1.49100
Zn119      Zn  0.36222401  0.33636094  0.59111208     1.49500
O120        O  0.40443758  0.34141244  0.57771444    -1.80000
O121        O  0.41634016  0.39316790  0.53930405    -0.70600
O122        O  0.42402192  0.28750225  0.55418065    -0.70400
O123        O  0.48452617  0.37126937  0.59464684    -0.70000
O124        O  0.39007930  0.33708434  0.52831912    -0.70600
O125        O  0.48396675  0.40862209  0.57114052    -0.70200
O126        O  0.43354423  0.28902268  0.58824728    -0.70800
O127        O  0.36868313  0.33640852  0.62226260    -0.70200
O128        O  0.34340345  0.27034888  0.55832261    -0.71000
O129        O  0.41726559  0.33160468  0.62569599    -0.70400
O130        O  0.31920586  0.28863779  0.58234954    -0.70800
O131        O  0.35844703  0.38058511  0.58427134    -0.70700
O132        O  0.41692042  0.41853850  0.58409225    -0.70500
C133        C  0.39877047  0.36974769  0.52577858     0.81300
C134        C  0.43378816  0.27734565  0.57027627     0.81800
C135        C  0.50055345  0.39886166  0.58331690     0.80700
C136        C  0.39184220  0.33448124  0.63343090     0.81100
C137        C  0.31721163  0.26528839  0.56954383     0.82200
C138        C  0.38505493  0.41231557  0.58438028     0.81300
Zn139      Zn  0.47005452  0.22062917  0.11298318     1.49700
Zn140      Zn  0.04908724  0.26113959  0.09920995     1.49400
Zn141      Zn  0.99655007  0.19372304  0.07448959     1.49100
Zn142      Zn  0.99260998  0.26476208  0.07125391     1.49500
O143        O  0.00142545  0.23471726  0.08935861    -1.80000
O144        O  0.49608215  0.21831157  0.13906914    -0.70600
O145        O  0.07868289  0.24632131  0.08368037    -0.70400
O146        O  0.44942643  0.14978973  0.08257947    -0.70000
O147        O  0.05245681  0.24685705  0.12837096    -0.70600
O148        O  0.43092240  0.17068541  0.10836839    -0.70200
O149        O  0.03977618  0.18839648  0.07989786    -0.70800
O150        O  0.49205894  0.25122433  0.04153012    -0.70200
O151        O  0.06933675  0.31395399  0.09541017    -0.71000
O152        O  0.49753533  0.20284627  0.04362297    -0.70400
O153        O  0.03099073  0.31570031  0.07331701    -0.70800
O154        O  0.44837212  0.26422833  0.08007551    -0.70700
O155        O  0.44506075  0.25030131  0.11366941    -0.70500
C156        C  0.02897048  0.22857266  0.14190223     0.81300
C157        C  0.07162438  0.21447365  0.08076780     0.81800
C158        C  0.42626988  0.14586931  0.09613327     0.80700
C159        C  0.49580971  0.22683439  0.03308882     0.81100
C160        C  0.05938909  0.33109901  0.08378873     0.82200
C161        C  0.43552912  0.26185310  0.09809483     0.81300
Zn162      Zn  0.09090343  0.21316366  0.23580784     1.49700
Zn163      Zn  0.09372078  0.15677501  0.26416112     1.49400
Zn164      Zn  0.02209774  0.15976749  0.25910326     1.49100
Zn165      Zn  0.05226100  0.13500049  0.22138494     1.49500
O166        O  0.06430389  0.16509680  0.24533134    -1.80000
O167        O  0.14349152  0.23357466  0.23927282    -0.70600
O168        O  0.07755472  0.15545474  0.29374231    -0.70400
O169        O  0.01781975  0.20361651  0.25280487    -0.70000
O170        O  0.14476670  0.19619145  0.26247501    -0.70600
O171        O  0.07613483  0.24205845  0.25183669    -0.70200
O172        O  0.02870602  0.15977110  0.29031910    -0.70800
O173        O  0.50187017  0.09577543  0.22463052    -0.70200
O174        O  0.09474972  0.11301041  0.25529652    -0.71000
O175        O  0.47867057  0.11313131  0.24975889    -0.70400
O176        O  0.08211005  0.11023287  0.22155427    -0.70800
O177        O  0.05187358  0.16218810  0.19517973    -0.70700
O178        O  0.07722069  0.21776957  0.20682375    -0.70500
C179        C  0.16039665  0.22424093  0.25143670     0.81300
C180        C  0.05215954  0.15843905  0.30153042     0.81800
C181        C  0.04418588  0.23541208  0.25281751     0.80700
C182        C  0.47585768  0.09073044  0.23603675     0.81100
C183        C  0.09332858  0.10064697  0.23725722     0.82200
C184        C  0.06086062  0.19495684  0.19279814     0.81300
Zn185      Zn  0.29266115  0.38265631  0.26385943     1.49700
Zn186      Zn  0.37430376  0.42392510  0.25932328     1.49400
Zn187      Zn  0.32873427  0.35273549  0.23493242     1.49100
Zn188      Zn  0.32701198  0.42370797  0.22177677     1.49500
O189        O  0.33079654  0.39605317  0.24460340    -1.80000
O190        O  0.30858757  0.38707784  0.29312247    -0.70600
O191        O  0.40981225  0.41056539  0.24960783    -0.70400
O192        O  0.28951493  0.30865278  0.24909245    -0.70000
O193        O  0.36759863  0.41745321  0.29046001    -0.70600
O194        O  0.25634842  0.33200476  0.25912575    -0.70200
O195        O  0.37779713  0.35771008  0.23448967    -0.70800
O196        O  0.31120801  0.39286912  0.19507678    -0.70200
O197        O  0.39433505  0.47504972  0.25168218    -0.71000
O198        O  0.31216255  0.34447206  0.20594239    -0.70400
O199        O  0.37301455  0.47231386  0.21991004    -0.70800
O200        O  0.29029643  0.43781845  0.22916593    -0.70700
O201        O  0.27094801  0.41330365  0.26024892    -0.70500
C202        C  0.33921284  0.40193513  0.30128185     0.81300
C203        C  0.40755261  0.38393361  0.24005132     0.81800
C204        C  0.25980240  0.30534375  0.25468900     0.80700
C205        C  0.30584136  0.36130825  0.19210858     0.81100
C206        C  0.39394439  0.48978922  0.23472658     0.82200
C207        C  0.27185765  0.43305352  0.24544486     0.81300
Zn208      Zn  0.30703403  0.30327205  0.07429510     1.49700
Zn209      Zn  0.23831812  0.28863213  0.09731047     1.49400
Zn210      Zn  0.23525880  0.22869307  0.06983169     1.49100
Zn211      Zn  0.27621271  0.24840662  0.11219740     1.49500
O212        O  0.26463744  0.26687185  0.08821249    -1.80000
O213        O  0.31181000  0.35197910  0.07925955    -0.70600
O214        O  0.18579640  0.25616991  0.09368817    -0.70400
O215        O  0.25117046  0.24266654  0.04041782    -0.70000
O216        O  0.25365100  0.33268538  0.08117512    -0.70600
O217        O  0.30060743  0.29557836  0.04332452    -0.70200
O218        O  0.18425791  0.21638407  0.07143565    -0.70800
O219        O  0.24590573  0.19382709  0.11258299    -0.70200
O220        O  0.25180227  0.30673156  0.12625473    -0.71000
O221        O  0.23503893  0.18454406  0.07871086    -0.70400
O222        O  0.27726669  0.27653614  0.13796602    -0.70800
O223        O  0.32604676  0.25836370  0.10884469    -0.70700
O224        O  0.34995322  0.29936869  0.08380163    -0.70500
C225        C  0.28565810  0.35768898  0.07914261     0.81300
C226        C  0.16878515  0.22926063  0.08204530     0.81800
C227        C  0.27696262  0.27054662  0.03240652     0.80700
C228        C  0.23579405  0.17335175  0.09681044     0.81100
C229        C  0.26836461  0.30033837  0.14023351     0.82200
C230        C  0.35218389  0.27909584  0.09739656     0.81300
Zn231      Zn  0.25051828  0.02811403  0.11068556     1.49700
Zn232      Zn  0.27053447  0.00703111  0.06796452     1.49400
Zn233      Zn  0.21100757  0.45008129  0.09620905     1.49100
Zn234      Zn  0.19599900  0.00386402  0.07305777     1.49500
O235        O  0.23249719  0.99813813  0.08674297    -1.80000
O236        O  0.30489230  0.05206338  0.11087320    -0.70600
O237        O  0.28264275  0.46801395  0.06945411    -0.70400
O238        O  0.19282411  0.44552843  0.12530368    -0.70000
O239        O  0.31487055  0.05071005  0.07699437    -0.70600
O240        O  0.22230044  0.00127553  0.13673485    -0.70200
O241        O  0.24362543  0.43012068  0.09242679    -0.70800
O242        O  0.14772965  0.46023054  0.07923543    -0.70200
O243        O  0.25644204  0.00937659  0.03847256    -0.71000
O244        O  0.16693886  0.42122662  0.08047405    -0.70400
O245        O  0.20313549  0.00475994  0.04190981    -0.70800
O246        O  0.19964668  0.05057505  0.08242891    -0.70700
O247        O  0.24050683  0.06797519  0.10726988    -0.70500
C248        C  0.32570933  0.06233843  0.09513413     0.81300
C249        C  0.27022141  0.43987460  0.08039786     0.81800
C250        C  0.19877012  0.46846302  0.13919104     0.80700
C251        C  0.14190920  0.42829441  0.07940596     0.81100
C252        C  0.22828886  0.00677631  0.03069790     0.82200
C253        C  0.21965763  0.07313683  0.09591927     0.81300
Zn254      Zn  0.13696253  0.47127102  0.25673634     1.49700
Zn255      Zn  0.06214385  0.40045215  0.26140634     1.49400
Zn256      Zn  0.08210277  0.44317187  0.21923295     1.49100
Zn257      Zn  0.12059982  0.40279126  0.23262591     1.49500
O258        O  0.10015005  0.42980997  0.24269435    -1.80000
O259        O  0.13002718  0.46333525  0.28784093    -0.70600
O260        O  0.01825155  0.40036904  0.25272269    -0.70400
O261        O  0.09158316  0.99271346  0.22395163    -0.70000
O262        O  0.07589599  0.41554679  0.29089514    -0.70600
O263        O  0.13270322  0.01481025  0.24870745    -0.70200
O264        O  0.02765640  0.41224125  0.21884191    -0.70800
O265        O  0.13783136  0.41673128  0.20339444    -0.70200
O266        O  0.04931196  0.34939046  0.25975520    -0.71000
O267        O  0.11049560  0.44586960  0.19302505    -0.70400
O268        O  0.08756242  0.35004083  0.23654477    -0.70800
O269        O  0.16529148  0.41756274  0.24764970    -0.70700
O270        O  0.18508624  0.47588858  0.24993431    -0.70500
C271        C  0.10437538  0.44019785  0.29885939     0.81300
C272        C  0.00710266  0.40133701  0.23469584     0.81800
C273        C  0.11218195  0.01796980  0.23579780     0.80700
C274        C  0.13284145  0.43528064  0.19000136     0.81100
C275        C  0.06112653  0.33341306  0.24874748     0.82200
C276        C  0.19056048  0.44956668  0.24909183     0.81300
Zn277      Zn  0.35084413  0.33007991  0.76308538     1.49700
Zn278      Zn  0.42172968  0.32788301  0.77507022     1.49400
Zn279      Zn  0.37861196  0.29209013  0.73440940     1.49100
Zn280      Zn  0.42058274  0.37393630  0.73714860     1.49500
O281        O  0.39331293  0.33118120  0.75277757    -1.80000
O282        O  0.34363170  0.31408158  0.79212400    -0.70600
O283        O  0.43606817  0.29142380  0.76752279    -0.70400
O284        O  0.32893761  0.25598519  0.74177244    -0.70000
O285        O  0.39177085  0.31233955  0.80227908    -0.70600
O286        O  0.30593469  0.29011408  0.75043598    -0.70200
O287        O  0.41031682  0.27117589  0.73701574    -0.70800
O288        O  0.41097796  0.36580022  0.70627811    -0.70200
O289        O  0.47011773  0.37408748  0.77579190    -0.71000
O290        O  0.37955309  0.30657263  0.70498381    -0.70400
O291        O  0.47198987  0.39305519  0.74336035    -0.70800
O292        O  0.40921194  0.41062210  0.74743288    -0.70700
O293        O  0.35686383  0.37976350  0.76353470    -0.70500
C294        C  0.36051374  0.30746362  0.80569116     0.81300
C295        C  0.43097248  0.27279775  0.75137677     0.81800
C296        C  0.30255250  0.25972338  0.74652180     0.80700
C297        C  0.39386944  0.33688819  0.69617434     0.81100
C298        C  0.48721227  0.39371702  0.76027660     0.82200
C299        C  0.38346641  0.40923143  0.75763778     0.81300
Zn300      Zn  0.24473134  0.23969672  0.89073656     1.49700
Zn301      Zn  0.24699843  0.28558660  0.92937875     1.49400
Zn302      Zn  0.28921832  0.24595640  0.93055276     1.49100
Zn303      Zn  0.31598590  0.31261242  0.90245150     1.49500
O304        O  0.27387556  0.27088278  0.91295155    -1.80000
O305        O  0.19678715  0.23823546  0.89044384    -0.70600
O306        O  0.25692439  0.28514739  0.96011890    -0.70400
O307        O  0.25729556  0.19348422  0.92779697    -0.70000
O308        O  0.19547921  0.25354044  0.92327685    -0.70600
O309        O  0.22954979  0.18852648  0.89806157    -0.70200
O310        O  0.28898869  0.25806117  0.96021954    -0.70800
O311        O  0.36128923  0.31744600  0.91460937    -0.70200
O312        O  0.25833285  0.33432794  0.91997833    -0.71000
O313        O  0.33865599  0.25992714  0.92262203    -0.70400
O314        O  0.30965214  0.35617697  0.90270837    -0.70800
O315        O  0.32259569  0.30418532  0.87326441    -0.70700
O316        O  0.27435876  0.25404878  0.86345315    -0.70500
C317        C  0.17998184  0.23994319  0.90628613     0.81300
C318        C  0.27442933  0.27310443  0.96964619     0.81800
C319        C  0.23546911  0.17470533  0.91385388     0.80700
C320        C  0.36490425  0.29040471  0.91810847     0.81100
C321        C  0.28352641  0.35897938  0.90948786     0.82200
C322        C  0.30556602  0.28050459  0.85985778     0.81300
Zn323      Zn  0.12410830  0.04870537  0.73690917     1.49700
Zn324      Zn  0.16820579  0.09427953  0.77601666     1.49400
Zn325      Zn  0.16649583  0.02149363  0.76374643     1.49100
Zn326      Zn  0.20601929  0.08846575  0.73574372     1.49500
O327        O  0.16571094  0.06324042  0.75345961    -1.80000
O328        O  0.10353202  0.07993334  0.74390095    -0.70600
O329        O  0.18252177  0.07880890  0.80333856    -0.70400
O330        O  0.11736682  0.47738032  0.76246469    -0.70000
O331        O  0.12219020  0.09675735  0.77630298    -0.70600
O332        O  0.08742319  0.49891331  0.74549234    -0.70200
O333        O  0.18043269  0.02868936  0.79324116    -0.70800
O334        O  0.24172236  0.07486469  0.74329062    -0.70200
O335        O  0.20520694  0.14550901  0.76910756    -0.71000
O336        O  0.20729508  0.01738733  0.75147832    -0.70400
O337        O  0.22680283  0.14078532  0.73879755    -0.70800
O338        O  0.19411151  0.07676737  0.70603366    -0.70700
O339        O  0.13504339  0.05032108  0.70593448    -0.70500
C340        C  0.10267667  0.09433279  0.76087217     0.81300
C341        C  0.18686952  0.05207037  0.80685202     0.81800
C342        C  0.08841327  0.47403768  0.75546898     0.80700
C343        C  0.23774868  0.04449338  0.74771204     0.81100
C344        C  0.22464296  0.15945898  0.75316831     0.82200
C345        C  0.16472435  0.06216847  0.69647207     0.81300
Zn346      Zn  0.19195200  0.99969625  0.92574497     1.49700
Zn347      Zn  0.26302685  0.99597578  0.93017570     1.49400
Zn348      Zn  0.22018220  0.47209949  0.88840837     1.49100
Zn349      Zn  0.25995729  0.05106164  0.90084415     1.49500
O350        O  0.23327771  0.00380573  0.91156078    -1.80000
O351        O  0.19972924  0.50057713  0.95689407    -0.70600
O352        O  0.26356032  0.45199925  0.92199265    -0.70400
O353        O  0.17071993  0.43237587  0.89352684    -0.70000
O354        O  0.24808234  0.49529668  0.95976600    -0.70600
O355        O  0.14812218  0.45204644  0.91775894    -0.70200
O356        O  0.25112944  0.44834108  0.88822490    -0.70800
O357        O  0.24406129  0.05394943  0.87210497    -0.70200
O358        O  0.31388405  0.03466088  0.92762001    -0.71000
O359        O  0.21672096  0.49732289  0.86211792    -0.70400
O360        O  0.31274326  0.07058918  0.90332524    -0.70800
O361        O  0.24681638  0.08148961  0.91661755    -0.70700
O362        O  0.18833689  0.04398736  0.91893131    -0.70500
C363        C  0.22316205  0.49869773  0.96783180     0.81300
C364        C  0.26247522  0.43933181  0.90412083     0.81800
C365        C  0.14518230  0.42810524  0.90511308     0.80700
C366        C  0.22579833  0.02996950  0.85899579     0.81100
C367        C  0.32961563  0.06162535  0.91577937     0.82200
C368        C  0.21514159  0.07556637  0.91811490     0.81300
Zn369      Zn  0.04384038  0.25865957  0.92976821     1.49700
Zn370      Zn  0.46188825  0.21708478  0.93114757     1.49400
Zn371      Zn  0.49993298  0.25974499  0.89049407     1.49100
Zn372      Zn  0.50089801  0.18847689  0.90390626     1.49500
O373        O  0.00204545  0.23143630  0.91345789    -1.80000
O374        O  0.03326883  0.24970410  0.96071519    -0.70600
O375        O  0.44116396  0.24853775  0.92726869    -0.70400
O376        O  0.04583814  0.30836443  0.89006834    -0.70000
O377        O  0.47411165  0.21829397  0.96088735    -0.70600
O378        O  0.06431049  0.31038357  0.92255661    -0.70200
O379        O  0.46270421  0.27382570  0.89662756    -0.70800
O380        O  0.48724136  0.18139564  0.87440989    -0.70200
O381        O  0.42593920  0.16740277  0.92441403    -0.71000
O382        O  0.48636035  0.22978275  0.86345144    -0.70400
O383        O  0.45988113  0.14385152  0.91655687    -0.70800
O384        O  0.04987276  0.19330725  0.90530886    -0.70700
O385        O  0.08038501  0.24559975  0.92127350    -0.70500
C386        C  0.00362460  0.23265809  0.97031265     0.81300
C387        C  0.44324684  0.26880946  0.91246583     0.81800
C388        C  0.06520578  0.32556553  0.90548213     0.80700
C389        C  0.48161397  0.19846471  0.86040352     0.81100
C390        C  0.42960582  0.14074707  0.92040260     0.82200
C391        C  0.07905701  0.21930051  0.91176893     0.81300
Zn392      Zn  0.47494614  0.14118277  0.74145288     1.49700
Zn393      Zn  0.40750891  0.12419619  0.76713507     1.49400
Zn394      Zn  0.40356878  0.06619114  0.73785099     1.49100
Zn395      Zn  0.44793128  0.08533509  0.77902191     1.49500
O396        O  0.43403897  0.10391283  0.75608375    -1.80000
O397        O  0.47819366  0.18919174  0.74751248    -0.70600
O398        O  0.35464419  0.09073791  0.76530096    -0.70400
O399        O  0.41769467  0.07997040  0.70817095    -0.70000
O400        O  0.41984173  0.16775644  0.75132851    -0.79600
O401        O  0.46642897  0.13354126  0.71046141    -0.70200
O402        O  0.35290624  0.05409480  0.74075458    -0.70800
O403        O  0.41671377  0.03062961  0.77967805    -0.70200
O404        O  0.42424419  0.14293516  0.79564882    -0.71000
O405        O  0.40295130  0.02170343  0.74609294    -0.70400
O406        O  0.45225512  0.11406456  0.80524787    -0.70800
O407        O  0.99717167  0.09499607  0.77329516    -0.70700
O408        O  0.01922521  0.13778680  0.74914873    -0.70500
C409        C  0.45124812  0.19363492  0.74871321     0.81300
C410        C  0.33746782  0.06509323  0.75284425     0.81800
C411        C  0.44260705  0.10810656  0.69981924     0.80700
C412        C  0.40461178  0.01018372  0.76392963     0.81100
C413        C  0.44302654  0.13741124  0.80851369     0.82200
C414        C  0.02246223  0.11654506  0.76158562     0.81300
C415        C  0.45594214  0.16004500  0.82649851    -0.09100
C416        C  0.46809484  0.18004059  0.84108502    -0.10700
C417        C  0.11292875  0.39413679  0.90430844    -0.09100
C418        C  0.08954856  0.36329706  0.90385328    -0.10700
C419        C  0.39782992  0.10692386  0.91912745    -0.09100
C420        C  0.36736579  0.08371037  0.91730811    -0.10700
C421        C  0.07820405  0.10754582  0.76238900    -0.09100
C422        C  0.05477444  0.11491542  0.76204565    -0.10700
C423        C  0.26934117  0.04230988  0.74950389    -0.09100
C424        C  0.29972735  0.04948940  0.75150633    -0.10700
C425        C  0.21316037  0.04002864  0.84090459    -0.09100
C426        C  0.20087045  0.04772191  0.82623341    -0.10700
C427        C  0.42184638  0.28533667  0.91369078    -0.09100
C428        C  0.39877303  0.29273955  0.91589742    -0.10700
C429        C  0.14242275  0.22701275  0.90540409    -0.09100
C430        C  0.11208649  0.22033261  0.90765284    -0.10700
C431        C  0.21828856  0.13676024  0.91585077    -0.09100
C432        C  0.21099639  0.10621536  0.91771867    -0.10700
C433        C  0.28104072  0.39010361  0.90475888    -0.09100
C434        C  0.27384178  0.41346014  0.90253421    -0.10700
C435        C  0.05523745  0.44194817  0.75945480    -0.09100
C436        C  0.02480931  0.41822385  0.76146890    -0.10700
C437        C  0.24590799  0.19738831  0.75132757    -0.09100
C438        C  0.26884622  0.22790699  0.74876387    -0.10700
C439        C  0.38580385  0.44244396  0.76301916    -0.09100
C440        C  0.39308161  0.47291760  0.76557928    -0.10700
C441        C  0.45497676  0.22830163  0.74818410    -0.09100
C442        C  0.44767777  0.25160172  0.74951439    -0.10700
C443        C  0.32361415  0.28470181  0.84042777    -0.09100
C444        C  0.34234567  0.29382967  0.82514298    -0.10700
C445        C  0.22438004  0.00469285  0.00856125    -0.09100
C446        C  0.22238480  0.00158105  0.98997586    -0.10700
C447        C  0.15520975  0.44647630  0.17171639    -0.09100
C448        C  0.17623290  0.45695915  0.15740752    -0.10700
C449        C  0.27719943  0.27533887  0.99174069    -0.09100
C450        C  0.27848817  0.27417340  0.01032069    -0.10700
C451        C  0.28545555  0.41740253  0.07856355    -0.09100
C452        C  0.29108765  0.39294664  0.07779496    -0.10700
C453        C  0.22042400  0.10645125  0.09800854    -0.09100
C454        C  0.22586467  0.13655837  0.09891957    -0.10700
C455        C  0.47020258  0.39066837  0.23288436    -0.09100
C456        C  0.44011793  0.38465980  0.23510833    -0.10700
C457        C  0.22573005  0.45478684  0.24870809    -0.09100
C458        C  0.24987413  0.44886054  0.24702628    -0.10700
C459        C  0.27954010  0.32267039  0.15835884    -0.09100
C460        C  0.29137844  0.34259407  0.17298522    -0.10700
C461        C  0.10399742  0.07431128  0.23500341    -0.09100
C462        C  0.11036369  0.05018303  0.23505002    -0.10700
C463        C  0.04544017  0.29568566  0.25092456    -0.09100
C464        C  0.03918400  0.26548509  0.25268867    -0.10700
C465        C  0.41880560  0.02727437  0.23266924    -0.09100
C466        C  0.44305690  0.05761745  0.23376366    -0.10700
C467        C  0.19801819  0.24710706  0.25338586    -0.09100
C468        C  0.22824251  0.27114125  0.25471585    -0.10700
C469        C  0.99941181  0.22733832  0.01099861    -0.09100
C470        C  0.00277835  0.22974805  0.99244781    -0.10700
C471        C  0.13119288  0.21425577  0.08021575    -0.09100
C472        C  0.10129498  0.20896604  0.07941969    -0.10700
C473        C  0.40874053  0.27180965  0.10031858    -0.09100
C474        C  0.38441574  0.27774246  0.09945511    -0.10700
C475        C  0.08208315  0.36871799  0.08154267    -0.09100
C476        C  0.10660643  0.39859160  0.07964957    -0.10700
C477        C  0.36253919  0.08875913  0.09742936    -0.09100
C478        C  0.39277680  0.11324592  0.09720017    -0.10700
C479        C  0.05026215  0.20657962  0.17448542    -0.09100
C480        C  0.04006447  0.21726670  0.16014421    -0.10700
C481        C  0.39005416  0.33641511  0.65550185    -0.09100
C482        C  0.39124394  0.33793543  0.67410875    -0.10700
C483        C  0.34066598  0.40174342  0.34200770    -0.09100
C484        C  0.34126022  0.40162500  0.32338706    -0.10700
C485        C  0.37371677  0.38816136  0.49344922    -0.09100
C486        C  0.38624415  0.38034846  0.50791657    -0.10700
C487        C  0.16962270  0.06117109  0.65579046    -0.09100
C488        C  0.16582619  0.06000720  0.67433135    -0.10700
C489        C  0.03832633  0.42063493  0.58496486    -0.09100
C490        C  0.06872355  0.44432025  0.58598734    -0.10700
C491        C  0.26155803  0.20048436  0.56744470    -0.09100
C492        C  0.28526238  0.23116384  0.56811274    -0.10700
C493        C  0.10871978  0.44012412  0.33961909    -0.09100
C494        C  0.10774606  0.44118592  0.32098963    -0.10700
C495        C  0.47309345  0.38920952  0.42034329    -0.09100
C496        C  0.44268212  0.38207862  0.41834698    -0.10700
C497        C  0.25193685  0.44783984  0.42806867    -0.09100
C498        C  0.22829386  0.45440315  0.42546580    -0.10700
C499        C  0.13513890  0.01428526  0.50636280    -0.09100
C500        C  0.12669632  0.49467926  0.49152053    -0.10700
C501        C  0.05330873  0.16720000  0.34211024    -0.09100
C502        C  0.05114439  0.16220123  0.32363989    -0.10700
C503        C  0.12002333  0.09000585  0.41284936    -0.09100
C504        C  0.12697248  0.06657589  0.41102058    -0.10700
C505        C  0.06281503  0.31055252  0.42867080    -0.09100
C506        C  0.05538978  0.27971617  0.42804092    -0.10700
C507        C  0.22736031  0.28443047  0.42649104    -0.09100
C508        C  0.19680008  0.26090203  0.42828576    -0.10700
C509        C  0.44086232  0.06834080  0.41706860    -0.09100
C510        C  0.41760209  0.03788901  0.41924507    -0.10700
C511        C  0.44147013  0.11192346  0.65906064    -0.09100
C512        C  0.44309231  0.11132337  0.67767553    -0.10700
C513        C  0.45101590  0.22733938  0.57139915    -0.09100
C514        C  0.44466481  0.25116878  0.56883698    -0.10700
C515        C  0.38724497  0.47314788  0.58172608    -0.09100
C516        C  0.38052947  0.44275978  0.58359639    -0.10700
C517        C  0.27967048  0.05714616  0.57048922    -0.09100
C518        C  0.31023218  0.06384425  0.57005026    -0.10700
C519        C  0.06566825  0.12852659  0.58558204    -0.09100
C520        C  0.08928503  0.12197379  0.58337175    -0.10700
C521        C  0.49374110  0.12463178  0.50721242    -0.09100
C522        C  0.01330679  0.13313954  0.49224071    -0.10700
Zn523      Zn  0.48428120  0.64897642  0.57000475     1.49700
Zn524      Zn  0.41360693  0.57666520  0.55716005     1.49400
Zn525      Zn  0.45542001  0.58195385  0.59825168     1.49100
Zn526      Zn  0.41390422  0.62215054  0.59585930     1.49500
O527        O  0.44141705  0.60729330  0.57996403    -1.80000
O528        O  0.49221767  0.64203448  0.54065299    -0.70600
O529        O  0.39919644  0.52534693  0.56405753    -0.70400
O530        O  0.00528205  0.59583050  0.59150033    -0.70000
O531        O  0.44397662  0.59280699  0.52993414    -0.70600
O532        O  0.02853962  0.65326406  0.58306729    -0.70200
O533        O  0.42385588  0.52957796  0.59483251    -0.70800
O534        O  0.42246991  0.62173568  0.62690015    -0.70200
O535        O  0.36523035  0.57439879  0.55649101    -0.71000
O536        O  0.45357806  0.59370342  0.62789740    -0.70400
O537        O  0.36245419  0.59058094  0.58893185    -0.70800
O538        O  0.42637975  0.67115355  0.58630516    -0.70700
O539        O  0.47885495  0.69281350  0.57034843    -0.70500
C540        C  0.47532149  0.61936506  0.52672478     0.81300
C541        C  0.40378737  0.51113344  0.58015731     0.81800
C542        C  0.03179974  0.62621664  0.58714737     0.80700
C543        C  0.43915985  0.60927066  0.63691155     0.81100
C544        C  0.34772898  0.57660559  0.57182310     0.82200
C545        C  0.45252311  0.69584025  0.57639238     0.81300
Zn546      Zn  0.10319353  0.67795387  0.40123552     1.49700
Zn547      Zn  0.04603029  0.62272629  0.43120858     1.49400
Zn548      Zn  0.08497840  0.70180402  0.44349245     1.49100
Zn549      Zn  0.02844897  0.67378343  0.40670782     1.49500
O550        O  0.06606296  0.66993014  0.42043424    -1.80000
O551        O  0.11592614  0.63961849  0.40343393    -0.70600
O552        O  0.02923631  0.61977877  0.46047583    -0.70400
O553        O  0.13957022  0.72578012  0.44291242    -0.70000
O554        O  0.07876197  0.60289378  0.42747793    -0.70600
O555        O  0.14775768  0.72236429  0.40898409    -0.70200
O556        O  0.05761544  0.67652813  0.47021020    -0.70800
O557        O  0.03296672  0.72196057  0.41431852    -0.70200
O558        O  0.50132639  0.59236415  0.41650532    -0.71000
O559        O  0.07472954  0.74129744  0.43873373    -0.70400
O560        O  0.48085969  0.63034440  0.41487014    -0.70800
O561        O  0.03343558  0.67059715  0.37544422    -0.70700
O562        O  0.08747588  0.67709700  0.37178039    -0.70500
C563        C  0.10456767  0.61220665  0.41490136     0.81300
C564        C  0.03499633  0.64368183  0.47365900     0.81800
C565        C  0.15961280  0.73495146  0.42683126     0.80700
C566        C  0.05371109  0.74574498  0.42709515     0.81100
C567        C  0.47575782  0.59865891  0.41578641     0.82200
C568        C  0.05837092  0.67226023  0.36413928     0.81300
Zn569      Zn  0.12210325  0.91516373  0.40287062     1.49700
Zn570      Zn  0.08069766  0.95558803  0.40075898     1.49400
Zn571      Zn  0.07726053  0.91454614  0.44226003     1.49100
Zn572      Zn  0.14867937  0.98587460  0.42805346     1.49500
O573        O  0.10702077  0.94245680  0.41885757    -1.80000
O574        O  0.12079870  0.92316552  0.37183031    -0.70600
O575        O  0.02869818  0.92463205  0.40573248    -0.70400
O576        O  0.07395149  0.86553496  0.44250916    -0.70000
O577        O  0.09064824  0.95216402  0.37090696    -0.70600
O578        O  0.09091870  0.86354756  0.41010256    -0.70200
O579        O  0.02592359  0.90100624  0.43679789    -0.70800
O580        O  0.14262501  0.99369541  0.45759450    -0.70200
O581        O  0.09479981  0.50588406  0.40626928    -0.71000
O582        O  0.09475340  0.94467577  0.46931658    -0.70400
O583        O  0.15201223  0.52986231  0.41482125    -0.70800
O584        O  0.19299900  0.98139602  0.42684090    -0.70700
O585        O  0.17151378  0.92845841  0.41168533    -0.70500
C586        C  0.10686536  0.93848260  0.36182227     0.81300
C587        C  0.01100933  0.90536179  0.42100939     0.81800
C588        C  0.07631061  0.84832840  0.42711729     0.80700
C589        C  0.12092382  0.97635730  0.47202444     0.81100
C590        C  0.12496706  0.53272913  0.41029772     0.82200
C591        C  0.19633171  0.95518398  0.42094001     0.81300
Zn592      Zn  0.12356813  0.54853232  0.56667147     1.49700
Zn593      Zn  0.20287162  0.58769381  0.55420493     1.49400
Zn594      Zn  0.17808331  0.60734425  0.59563845     1.49100
Zn595      Zn  0.17462421  0.53240796  0.59211853     1.49500
O596        O  0.17065215  0.56937286  0.57736967    -1.80000
O597        O  0.12121257  0.53044016  0.53787034    -0.70600
O598        O  0.22710953  0.64251867  0.55385534    -0.70400
O599        O  0.13922666  0.61905470  0.59299604    -0.70000
O600        O  0.17791970  0.55953933  0.52783469    -0.70600
O601        O  0.10330437  0.58113746  0.56928481    -0.70200
O602        O  0.22214362  0.65210089  0.58735856    -0.70800
O603        O  0.17276946  0.53966767  0.62309197    -0.70200
O604        O  0.24205569  0.57719291  0.55940933    -0.71000
O605        O  0.17765169  0.59326847  0.62534638    -0.70400
O606        O  0.22211855  0.53576044  0.58433424    -0.70800
O607        O  0.13072764  0.98416394  0.58610917    -0.70700
O608        O  0.09303767  0.00463151  0.58239538    -0.70500
C609        C  0.14527555  0.53631687  0.52467354     0.81300
C610        C  0.23552367  0.66327239  0.56947999     0.81800
C611        C  0.11202122  0.60711563  0.58152897     0.80700
C612        C  0.17389667  0.56494160  0.63370539     0.81100
C613        C  0.24605412  0.55609621  0.57133893     0.82200
C614        C  0.09916814  0.97917969  0.58508954     0.81300
Zn615      Zn  0.33941953  0.86181563  0.43112350     1.49700
Zn616      Zn  0.34071422  0.93431596  0.44341997     1.49400
Zn617      Zn  0.38047141  0.92932285  0.40364411     1.49100
Zn618      Zn  0.29886866  0.89017615  0.40406989     1.49500
O619        O  0.33964198  0.90395731  0.42090816    -1.80000
O620        O  0.35294877  0.86894597  0.46060541    -0.70600
O621        O  0.37684585  0.98569461  0.43664192    -0.70400
O622        O  0.41567881  0.91518268  0.41175528    -0.70000
O623        O  0.35513435  0.91912900  0.47070174    -0.70600
O624        O  0.38050455  0.85750348  0.41932355    -0.70200
O625        O  0.40062413  0.98157497  0.40698099    -0.70800
O626        O  0.31027832  0.89172674  0.37349527    -0.70200
O627        O  0.29421760  0.93582640  0.44340142    -0.71000
O628        O  0.36935589  0.91823281  0.37370407    -0.70400
O629        O  0.27933477  0.92208384  0.41025913    -0.70800
O630        O  0.26105403  0.84109648  0.41252104    -0.70700
O631        O  0.28966364  0.81831283  0.42968998    -0.70500
C632        C  0.35946693  0.89238551  0.47418372     0.81300
C633        C  0.39702526  0.99993268  0.42101808     0.81800
C634        C  0.41126754  0.88458828  0.41611199     0.80700
C635        C  0.33997868  0.90373261  0.36410805     0.81100
C636        C  0.27658241  0.93492594  0.42735424     0.82200
C637        C  0.26111650  0.81586211  0.42259378     0.81300
Zn638      Zn  0.43126782  0.88920791  0.56805674     1.49700
Zn639      Zn  0.39276890  0.81078898  0.55420675     1.49400
Zn640      Zn  0.43342226  0.83300798  0.59648407     1.49100
Zn641      Zn  0.36222398  0.83636092  0.59111207     1.49500
O642        O  0.40443756  0.84141238  0.57771441    -1.80000
O643        O  0.41634033  0.89316799  0.53930400    -0.70600
O644        O  0.42402177  0.78750210  0.55418066    -0.70400
O645        O  0.48452613  0.87126942  0.59464686    -0.70000
O646        O  0.39007930  0.83708437  0.52831913    -0.70600
O647        O  0.48396694  0.90862221  0.57114055    -0.70200
O648        O  0.43354431  0.78902271  0.58824726    -0.70800
O649        O  0.36868308  0.83640851  0.62226260    -0.70200
O650        O  0.34340337  0.77034891  0.55832260    -0.71000
O651        O  0.41726555  0.83160465  0.62569601    -0.70400
O652        O  0.31920572  0.78863777  0.58234952    -0.70800
O653        O  0.35844704  0.88058514  0.58427134    -0.70700
O654        O  0.41692046  0.91853858  0.58409225    -0.70500
C655        C  0.39877056  0.86974778  0.52577858     0.81300
C656        C  0.43378811  0.77734566  0.57027626     0.81800
C657        C  0.50055352  0.89886173  0.58331695     0.80700
C658        C  0.39184205  0.83448111  0.63343091     0.81100
C659        C  0.31721148  0.76528839  0.56954378     0.82200
C660        C  0.38505495  0.91231563  0.58438028     0.81300
Zn661      Zn  0.47005447  0.72062908  0.11298318     1.49700
Zn662      Zn  0.04908714  0.76113951  0.09920997     1.49400
Zn663      Zn  0.99655006  0.69372298  0.07448959     1.49100
Zn664      Zn  0.99260995  0.76476204  0.07125391     1.49500
O665        O  0.00142525  0.73471714  0.08935861    -1.80000
O666        O  0.49608210  0.71831146  0.13906911    -0.70600
O667        O  0.07868285  0.74632127  0.08368035    -0.70400
O668        O  0.44942643  0.64978968  0.08257947    -0.70000
O669        O  0.05245681  0.74685707  0.12837094    -0.70600
O670        O  0.43092231  0.67068528  0.10836841    -0.70200
O671        O  0.03977624  0.68839645  0.07989787    -0.70800
O672        O  0.49205901  0.75122436  0.04153014    -0.70200
O673        O  0.06933668  0.81395392  0.09541014    -0.71000
O674        O  0.49753539  0.70284626  0.04362296    -0.70400
O675        O  0.03099072  0.81570030  0.07331699    -0.70800
O676        O  0.44837204  0.76422835  0.08007553    -0.70700
O677        O  0.44506072  0.75030130  0.11366941    -0.70500
C678        C  0.02897053  0.72857271  0.14190222     0.81300
C679        C  0.07162447  0.71447367  0.08076780     0.81800
C680        C  0.42626978  0.64586919  0.09613327     0.80700
C681        C  0.49580965  0.72683431  0.03308882     0.81100
C682        C  0.05938902  0.83109899  0.08378871     0.82200
C683        C  0.43552904  0.76185293  0.09809483     0.81300
Zn684      Zn  0.09090336  0.71316364  0.23580784     1.49700
Zn685      Zn  0.09372077  0.65677504  0.26416111     1.49400
Zn686      Zn  0.02209775  0.65976746  0.25910327     1.49100
Zn687      Zn  0.05226101  0.63500052  0.22138493     1.49500
O688        O  0.06430398  0.66509687  0.24533134    -1.80000
O689        O  0.14349144  0.73357463  0.23927280    -0.70600
O690        O  0.07755468  0.65545472  0.29374231    -0.70400
O691        O  0.01781975  0.70361642  0.25280486    -0.70000
O692        O  0.14476670  0.69619152  0.26247501    -0.70600
O693        O  0.07613478  0.74205844  0.25183671    -0.70200
O694        O  0.02870601  0.65977112  0.29031910    -0.70800
O695        O  0.50187015  0.59577552  0.22463053    -0.70200
O696        O  0.09474964  0.61301048  0.25529652    -0.71000
O697        O  0.47867053  0.61313129  0.24975892    -0.70400
O698        O  0.08211004  0.61023288  0.22155426    -0.70800
O699        O  0.05187368  0.66218813  0.19517971    -0.70700
O700        O  0.07722068  0.71776958  0.20682375    -0.70500
C701        C  0.16039656  0.72424099  0.25143670     0.81300
C702        C  0.05215947  0.65843909  0.30153043     0.81800
C703        C  0.04418585  0.73541202  0.25281751     0.80700
C704        C  0.47585769  0.59073055  0.23603677     0.81100
C705        C  0.09332853  0.60064690  0.23725723     0.82200
C706        C  0.06086056  0.69495684  0.19279816     0.81300
Zn707      Zn  0.29266111  0.88265629  0.26385943     1.49700
Zn708      Zn  0.37430382  0.92392518  0.25932330     1.49400
Zn709      Zn  0.32873430  0.85273553  0.23493243     1.49100
Zn710      Zn  0.32701197  0.92370797  0.22177677     1.49500
O711        O  0.33079662  0.89605319  0.24460343    -1.80000
O712        O  0.30858752  0.88707779  0.29312246    -0.70600
O713        O  0.40981241  0.91056543  0.24960786    -0.70400
O714        O  0.28951499  0.80865291  0.24909246    -0.70000
O715        O  0.36759861  0.91745320  0.29046002    -0.70600
O716        O  0.25634840  0.83200475  0.25912571    -0.70200
O717        O  0.37779719  0.85771013  0.23448969    -0.70800
O718        O  0.31120800  0.89286909  0.19507676    -0.70200
O719        O  0.39433509  0.97504982  0.25168222    -0.71000
O720        O  0.31216259  0.84447206  0.20594241    -0.70400
O721        O  0.37301456  0.97231387  0.21991005    -0.70800
O722        O  0.29029632  0.93781837  0.22916592    -0.70700
O723        O  0.27094788  0.91330358  0.26024891    -0.70500
C724        C  0.33921279  0.90193507  0.30128185     0.81300
C725        C  0.40755265  0.88393368  0.24005128     0.81800
C726        C  0.25980246  0.80534381  0.25468898     0.80700
C727        C  0.30584129  0.86130819  0.19210860     0.81100
C728        C  0.39394448  0.98978929  0.23472658     0.82200
C729        C  0.27185751  0.93305348  0.24544486     0.81300
Zn730      Zn  0.30703408  0.80327211  0.07429511     1.49700
Zn731      Zn  0.23831817  0.78863207  0.09731046     1.49400
Zn732      Zn  0.23525877  0.72869308  0.06983169     1.49100
Zn733      Zn  0.27621280  0.74840663  0.11219740     1.49500
O734        O  0.26463758  0.76687186  0.08821247    -1.80000
O735        O  0.31181009  0.85197919  0.07925955    -0.70600
O736        O  0.18579645  0.75616992  0.09368817    -0.70400
O737        O  0.25117042  0.74266652  0.04041783    -0.70000
O738        O  0.25365106  0.83268535  0.08117512    -0.70600
O739        O  0.30060744  0.79557831  0.04332456    -0.70200
O740        O  0.18425782  0.71638397  0.07143567    -0.70800
O741        O  0.24590583  0.69382706  0.11258300    -0.70200
O742        O  0.25180231  0.80673147  0.12625471    -0.71000
O743        O  0.23503891  0.68454402  0.07871086    -0.70400
O744        O  0.27726677  0.77653610  0.13796603    -0.70800
O745        O  0.32604681  0.75836364  0.10884465    -0.70700
O746        O  0.34995322  0.79936877  0.08380167    -0.70500
C747        C  0.28565820  0.85768900  0.07914261     0.81300
C748        C  0.16878512  0.72926066  0.08204531     0.81800
C749        C  0.27696256  0.77054652  0.03240653     0.80700
C750        C  0.23579407  0.67335181  0.09681045     0.81100
C751        C  0.26836464  0.80033830  0.14023352     0.82200
C752        C  0.35218386  0.77909590  0.09739654     0.81300
Zn753      Zn  0.25051834  0.52811409  0.11068556     1.49700
Zn754      Zn  0.27053449  0.50703105  0.06796451     1.49400
Zn755      Zn  0.21100759  0.95008125  0.09620908     1.49100
Zn756      Zn  0.19599899  0.50386403  0.07305777     1.49500
O757        O  0.23249715  0.49813816  0.08674296    -1.80000
O758        O  0.30489241  0.55206341  0.11087322    -0.70600
O759        O  0.28264273  0.96801395  0.06945413    -0.70400
O760        O  0.19282417  0.94552843  0.12530372    -0.70000
O761        O  0.31487060  0.55071003  0.07699437    -0.70600
O762        O  0.22230044  0.50127554  0.13673485    -0.70200
O763        O  0.24362545  0.93012061  0.09242681    -0.70800
O764        O  0.14772971  0.96023048  0.07923542    -0.70200
O765        O  0.25644208  0.50937654  0.03847257    -0.71000
O766        O  0.16693894  0.92122663  0.08047404    -0.70400
O767        O  0.20313551  0.50475987  0.04190981    -0.70800
O768        O  0.19964677  0.55057508  0.08242891    -0.70700
O769        O  0.24050698  0.56797537  0.10726983    -0.70500
C770        C  0.32570945  0.56233848  0.09513413     0.81300
C771        C  0.27022145  0.93987467  0.08039790     0.81800
C772        C  0.19877006  0.96846306  0.13919104     0.80700
C773        C  0.14190927  0.92829434  0.07940597     0.81100
C774        C  0.22828895  0.50677623  0.03069791     0.82200
C775        C  0.21965766  0.57313683  0.09591929     0.81300
Zn776      Zn  0.13696252  0.97127108  0.25673634     1.49700
Zn777      Zn  0.06214382  0.90045212  0.26140636     1.49400
Zn778      Zn  0.08210278  0.94317183  0.21923296     1.49100
Zn779      Zn  0.12059980  0.90279127  0.23262591     1.49500
O780        O  0.10015008  0.92981000  0.24269440    -1.80000
O781        O  0.13002716  0.96333535  0.28784093    -0.70600
O782        O  0.01825154  0.90036898  0.25272269    -0.70400
O783        O  0.09158309  0.49271348  0.22395160    -0.70000
O784        O  0.07589601  0.91554675  0.29089516    -0.70600
O785        O  0.13270318  0.51481017  0.24870744    -0.70200
O786        O  0.02765643  0.91224128  0.21884192    -0.70800
O787        O  0.13783133  0.91673134  0.20339445    -0.70200
O788        O  0.04931194  0.84939043  0.25975516    -0.71000
O789        O  0.11049561  0.94586963  0.19302502    -0.70400
O790        O  0.08756238  0.85004072  0.23654474    -0.70800
O791        O  0.16529145  0.91756283  0.24764971    -0.70700
O792        O  0.18508623  0.97588868  0.24993431    -0.70500
C793        C  0.10437535  0.94019778  0.29885938     0.81300
C794        C  0.00710275  0.90133704  0.23469582     0.81800
C795        C  0.11218184  0.51796981  0.23579780     0.80700
C796        C  0.13284157  0.93528082  0.19000139     0.81100
C797        C  0.06112661  0.83341303  0.24874747     0.82200
C798        C  0.19056047  0.94956677  0.24909183     0.81300
Zn799      Zn  0.35084415  0.83007988  0.76308544     1.49700
Zn800      Zn  0.42172965  0.82788298  0.77507023     1.49400
Zn801      Zn  0.37861202  0.79209011  0.73440940     1.49100
Zn802      Zn  0.42058281  0.87393625  0.73714859     1.49500
O803        O  0.39331283  0.83118102  0.75277758    -1.80000
O804        O  0.34363162  0.81408148  0.79212403    -0.70600
O805        O  0.43606808  0.79142369  0.76752283    -0.70400
O806        O  0.32893762  0.75598519  0.74177242    -0.70000
O807        O  0.39177085  0.81233958  0.80227910    -0.70600
O808        O  0.30593481  0.79011412  0.75043602    -0.70200
O809        O  0.41031690  0.77117583  0.73701571    -0.70800
O810        O  0.41097806  0.86580023  0.70627809    -0.70200
O811        O  0.47011762  0.87408732  0.77579188    -0.71000
O812        O  0.37955316  0.80657261  0.70498381    -0.70400
O813        O  0.47198994  0.89305516  0.74336034    -0.70800
O814        O  0.40921193  0.91062202  0.74743289    -0.70700
O815        O  0.35686388  0.87976344  0.76353477    -0.70500
C816        C  0.36051374  0.80746365  0.80569120     0.81300
C817        C  0.43097251  0.77279772  0.75137678     0.81800
C818        C  0.30255251  0.75972332  0.74652181     0.80700
C819        C  0.39386951  0.83688821  0.69617433     0.81100
C820        C  0.48721227  0.89371700  0.76027659     0.82200
C821        C  0.38346633  0.90923133  0.75763778     0.81300
Zn822      Zn  0.24473142  0.73969676  0.89073656     1.49700
Zn823      Zn  0.24699847  0.78558659  0.92937873     1.49400
Zn824      Zn  0.28921838  0.74595637  0.93055278     1.49100
Zn825      Zn  0.31598593  0.81261240  0.90245151     1.49500
O826        O  0.27387580  0.77088279  0.91295158    -1.80000
O827        O  0.19678725  0.73823549  0.89044385    -0.70600
O828        O  0.25692437  0.78514739  0.96011889    -0.70400
O829        O  0.25729559  0.69348413  0.92779699    -0.70000
O830        O  0.19547918  0.75354049  0.92327683    -0.70600
O831        O  0.22954998  0.68852660  0.89806153    -0.70200
O832        O  0.28898868  0.75806120  0.96021956    -0.70800
O833        O  0.36128927  0.81744596  0.91460942    -0.70200
O834        O  0.25833294  0.83432792  0.91997830    -0.71000
O835        O  0.33865610  0.75992712  0.92262206    -0.70400
O836        O  0.30965219  0.85617695  0.90270839    -0.70800
O837        O  0.32259578  0.80418536  0.87326441    -0.70700
O838        O  0.27435883  0.75404886  0.86345314    -0.70500
C839        C  0.17998186  0.73994315  0.90628613     0.81300
C840        C  0.27442924  0.77310441  0.96964620     0.81800
C841        C  0.23546915  0.67470537  0.91385387     0.80700
C842        C  0.36490433  0.79040463  0.91810853     0.81100
C843        C  0.28352654  0.85897934  0.90948786     0.82200
C844        C  0.30556614  0.78050461  0.85985780     0.81300
Zn845      Zn  0.12410830  0.54870537  0.73690917     1.49700
Zn846      Zn  0.16820578  0.59427958  0.77601665     1.49400
Zn847      Zn  0.16649578  0.52149363  0.76374641     1.49100
Zn848      Zn  0.20601927  0.58846573  0.73574370     1.49500
O849        O  0.16571096  0.56324049  0.75345961    -1.80000
O850        O  0.10353209  0.57993343  0.74390092    -0.70600
O851        O  0.18252167  0.57880886  0.80333854    -0.70400
O852        O  0.11736695  0.97738040  0.76246472    -0.70000
O853        O  0.12219020  0.59675742  0.77630296    -0.70600
O854        O  0.08742327  0.99891332  0.74549232    -0.70200
O855        O  0.18043261  0.52868930  0.79324116    -0.70800
O856        O  0.24172238  0.57486465  0.74329061    -0.70200
O857        O  0.20520696  0.64550911  0.76910755    -0.71000
O858        O  0.20729503  0.51738730  0.75147828    -0.70400
O859        O  0.22680289  0.64078532  0.73879753    -0.70800
O860        O  0.19411154  0.57676730  0.70603364    -0.70700
O861        O  0.13504342  0.55032102  0.70593446    -0.70500
C862        C  0.10267666  0.59433274  0.76087216     0.81300
C863        C  0.18686941  0.55207030  0.80685201     0.81800
C864        C  0.08841337  0.97403769  0.75546898     0.80700
C865        C  0.23774865  0.54449334  0.74771210     0.81100
C866        C  0.22464312  0.65945903  0.75316829     0.82200
C867        C  0.16472437  0.56216839  0.69647211     0.81300
Zn868      Zn  0.19195207  0.49969627  0.92574496     1.49700
Zn869      Zn  0.26302686  0.49597581  0.93017569     1.49400
Zn870      Zn  0.22018224  0.97209957  0.88840837     1.49100
Zn871      Zn  0.25995730  0.55106161  0.90084413     1.49500
O872        O  0.23327768  0.50380570  0.91156074    -1.80000
O873        O  0.19972917  0.00057705  0.95689408    -0.70600
O874        O  0.26356029  0.95199915  0.92199267    -0.70400
O875        O  0.17071990  0.93237593  0.89352685    -0.70000
O876        O  0.24808234  0.99529665  0.95976600    -0.70600
O877        O  0.14812212  0.95204642  0.91775896    -0.70200
O878        O  0.25112947  0.94834119  0.88822493    -0.70800
O879        O  0.24406131  0.55394935  0.87210495    -0.70200
O880        O  0.31388406  0.53466093  0.92762004    -0.71000
O881        O  0.21672100  0.99732294  0.86211791    -0.70400
O882        O  0.31274332  0.57058923  0.90332522    -0.70800
O883        O  0.24681638  0.58148953  0.91661753    -0.70700
O884        O  0.18833696  0.54398736  0.91893129    -0.70500
C885        C  0.22316204  0.99869766  0.96783179     0.81300
C886        C  0.26247533  0.93933199  0.90412082     0.81800
C887        C  0.14518232  0.92810541  0.90511308     0.80700
C888        C  0.22579815  0.52996936  0.85899582     0.81100
C889        C  0.32961573  0.56162539  0.91577937     0.82200
C890        C  0.21514169  0.57556638  0.91811489     0.81300
Zn891      Zn  0.04384036  0.75865959  0.92976820     1.49700
Zn892      Zn  0.46188827  0.71708481  0.93114757     1.49400
Zn893      Zn  0.49993295  0.75974500  0.89049406     1.49100
Zn894      Zn  0.50089807  0.68847697  0.90390627     1.49500
O895        O  0.00204533  0.73143624  0.91345786    -1.80000
O896        O  0.03326878  0.74970409  0.96071517    -0.70600
O897        O  0.44116396  0.74853769  0.92726866    -0.70400
O898        O  0.04583811  0.80836436  0.89006834    -0.70000
O899        O  0.47411155  0.71829391  0.96088736    -0.70600
O900        O  0.06431046  0.81038353  0.92255661    -0.70200
O901        O  0.46270423  0.77382579  0.89662755    -0.70800
O902        O  0.48724152  0.68139576  0.87440988    -0.70200
O903        O  0.42593921  0.66740284  0.92441402    -0.71000
O904        O  0.48636030  0.72978278  0.86345145    -0.70400
O905        O  0.45988114  0.64385160  0.91655687    -0.70800
O906        O  0.04987286  0.69330732  0.90530888    -0.70700
O907        O  0.08038503  0.74559980  0.92127353    -0.70500
C908        C  0.00362454  0.73265799  0.97031266     0.81300
C909        C  0.44324698  0.76880959  0.91246586     0.81800
C910        C  0.06520572  0.82556535  0.90548211     0.80700
C911        C  0.48161396  0.69846480  0.86040351     0.81100
C912        C  0.42960573  0.64074710  0.92040258     0.82200
C913        C  0.07905712  0.71930067  0.91176895     0.81300
Zn914      Zn  0.47494615  0.64118273  0.74145289     1.49700
Zn915      Zn  0.40750886  0.62419615  0.76713510     1.49400
Zn916      Zn  0.40356876  0.56619121  0.73785099     1.49100
Zn917      Zn  0.44793132  0.58533510  0.77902192     1.49500
O918        O  0.43403896  0.60391288  0.75608379    -1.80000
O919        O  0.47819361  0.68919167  0.74751247    -0.70600
O920        O  0.35464407  0.59073785  0.76530103    -0.70400
O921        O  0.41769461  0.57997050  0.70817095    -0.70000
O922        O  0.41984171  0.66775637  0.75132849    -0.79600
O923        O  0.46642904  0.63354123  0.71046142    -0.70200
O924        O  0.35290619  0.55409488  0.74075455    -0.70800
O925        O  0.41671386  0.53062961  0.77967805    -0.70200
O926        O  0.42424414  0.64293516  0.79564883    -0.71000
O927        O  0.40295121  0.52170344  0.74609296    -0.70400
O928        O  0.45225519  0.61406460  0.80524779    -0.70800
O929        O  0.99717171  0.59499600  0.77329517    -0.70700
O930        O  0.01922520  0.63778673  0.74914873    -0.70500
C931        C  0.45124811  0.69363489  0.74871321     0.81300
C932        C  0.33746777  0.56509327  0.75284425     0.81800
C933        C  0.44260710  0.60810659  0.69981923     0.80700
C934        C  0.40461184  0.51018378  0.76392962     0.81100
C935        C  0.44302656  0.63741125  0.80851368     0.82200
C936        C  0.02246220  0.61654500  0.76158562     0.81300
C937        C  0.45594215  0.66004502  0.82649847    -0.09100
C938        C  0.46809490  0.68004069  0.84108500    -0.10700
C939        C  0.11292863  0.89413661  0.90430842    -0.09100
C940        C  0.08954876  0.86329708  0.90385326    -0.10700
C941        C  0.39782996  0.60692390  0.91912744    -0.09100
C942        C  0.36736568  0.58371033  0.91730814    -0.10700
C943        C  0.07820399  0.60754586  0.76238901    -0.09100
C944        C  0.05477448  0.61491540  0.76204568    -0.10700
C945        C  0.26934110  0.54230973  0.74950388    -0.09100
C946        C  0.29972734  0.54948945  0.75150632    -0.10700
C947        C  0.21316027  0.54002858  0.84090457    -0.09100
C948        C  0.20087034  0.54772183  0.82623338    -0.10700
C949        C  0.42184656  0.78533670  0.91369089    -0.09100
C950        C  0.39877315  0.79273954  0.91589745    -0.10700
C951        C  0.14242284  0.72701286  0.90540412    -0.09100
C952        C  0.11208660  0.72033279  0.90765290    -0.10700
C953        C  0.21828855  0.63676030  0.91585076    -0.09100
C954        C  0.21099652  0.60621543  0.91771868    -0.10700
C955        C  0.28104068  0.89010370  0.90475889    -0.09100
C956        C  0.27384178  0.91346006  0.90253419    -0.10700
C957        C  0.05523755  0.94194817  0.75945475    -0.09100
C958        C  0.02480927  0.91822382  0.76146885    -0.10700
C959        C  0.24590801  0.69738824  0.75132753    -0.09100
C960        C  0.26884615  0.72790701  0.74876385    -0.10700
C961        C  0.38580374  0.94244383  0.76301918    -0.09100
C962        C  0.39308171  0.97291760  0.76557935    -0.10700
C963        C  0.45497675  0.72830157  0.74818410    -0.09100
C964        C  0.44767768  0.75160166  0.74951441    -0.10700
C965        C  0.32361419  0.78470172  0.84042778    -0.09100
C966        C  0.34234565  0.79382974  0.82514300    -0.10700
C967        C  0.22438013  0.50469278  0.00856127    -0.09100
C968        C  0.22238479  0.50158109  0.98997588    -0.10700
C969        C  0.15520984  0.94647638  0.17171642    -0.09100
C970        C  0.17623282  0.95695915  0.15740751    -0.10700
C971        C  0.27719947  0.77533879  0.99174071    -0.09100
C972        C  0.27848823  0.77417340  0.01032072    -0.10700
C973        C  0.28545554  0.91740244  0.07856354    -0.09100
C974        C  0.29108771  0.89294668  0.07779496    -0.10700
C975        C  0.22042415  0.60645144  0.09800851    -0.09100
C976        C  0.22586486  0.63655838  0.09891955    -0.10700
C977        C  0.47020264  0.89066841  0.23288435    -0.09100
C978        C  0.44011810  0.88465985  0.23510838    -0.10700
C979        C  0.22572990  0.95478681  0.24870809    -0.09100
C980        C  0.24987408  0.94886052  0.24702628    -0.10700
C981        C  0.27954012  0.82267029  0.15835886    -0.09100
C982        C  0.29137842  0.84259396  0.17298525    -0.10700
C983        C  0.10399736  0.57431135  0.23500347    -0.09100
C984        C  0.11036368  0.55018296  0.23505006    -0.10700
C985        C  0.04544025  0.79568563  0.25092453    -0.09100
C986        C  0.03918398  0.76548504  0.25268863    -0.10700
C987        C  0.41880563  0.52727442  0.23266931    -0.09100
C988        C  0.44305684  0.55761746  0.23376370    -0.10700
C989        C  0.19801816  0.74710707  0.25338584    -0.09100
C990        C  0.22824251  0.77114127  0.25471583    -0.10700
C991        C  0.99941182  0.72733831  0.01099863    -0.09100
C992        C  0.00277838  0.72974815  0.99244782    -0.10700
C993        C  0.13119302  0.71425592  0.08021577    -0.09100
C994        C  0.10129503  0.70896608  0.07941970    -0.10700
C995        C  0.40874042  0.77180969  0.10031856    -0.09100
C996        C  0.38441583  0.77774252  0.09945505    -0.10700
C997        C  0.08208315  0.86871796  0.08154264    -0.09100
C998        C  0.10660646  0.89859159  0.07964956    -0.10700
C999        C  0.36253912  0.58875910  0.09742935    -0.09100
C1000       C  0.39277689  0.61324588  0.09720017    -0.10700
C1001       C  0.05026210  0.70657955  0.17448539    -0.09100
C1002       C  0.04006464  0.71726678  0.16014417    -0.10700
C1003       C  0.39005416  0.83641511  0.65550185    -0.09100
C1004       C  0.39124402  0.83793546  0.67410876    -0.10700
C1005       C  0.34066592  0.90174332  0.34200769    -0.09100
C1006       C  0.34126007  0.90162490  0.32338705    -0.10700
C1007       C  0.37371679  0.88816132  0.49344920    -0.09100
C1008       C  0.38624430  0.88034860  0.50791653    -0.10700
C1009       C  0.16962267  0.56117112  0.65579052    -0.09100
C1010       C  0.16582628  0.56000714  0.67433131    -0.10700
C1011       C  0.03832650  0.92063496  0.58496489    -0.09100
C1012       C  0.06872362  0.94432039  0.58598734    -0.10700
C1013       C  0.26155796  0.70048429  0.56744464    -0.09100
C1014       C  0.28526240  0.73116389  0.56811276    -0.10700
C1015       C  0.10871990  0.94012423  0.33961908    -0.09100
C1016       C  0.10774610  0.94118583  0.32098961    -0.10700
C1017       C  0.47309349  0.88920959  0.42034327    -0.09100
C1018       C  0.44268223  0.88207857  0.41834695    -0.10700
C1019       C  0.25193689  0.94783984  0.42806873    -0.09100
C1020       C  0.22829396  0.95440336  0.42546580    -0.10700
C1021       C  0.13513899  0.51428521  0.50636278    -0.09100
C1022       C  0.12669632  0.99467913  0.49152049    -0.10700
C1023       C  0.05330885  0.66719996  0.34211025    -0.09100
C1024       C  0.05114434  0.66220124  0.32363989    -0.10700
C1025       C  0.12002331  0.59000581  0.41284935    -0.09100
C1026       C  0.12697242  0.56657596  0.41102058    -0.10700
C1027       C  0.06281500  0.81055242  0.42867081    -0.09100
C1028       C  0.05538969  0.77971619  0.42804094    -0.10700
C1029       C  0.22736031  0.78443051  0.42649100    -0.09100
C1030       C  0.19680003  0.76090196  0.42828576    -0.10700
C1031       C  0.44086231  0.56834068  0.41706862    -0.09100
C1032       C  0.41760220  0.53788893  0.41924512    -0.10700
C1033       C  0.44147008  0.61192346  0.65906062    -0.09100
C1034       C  0.44309231  0.61132330  0.67767552    -0.10700
C1035       C  0.45101589  0.72733941  0.57139913    -0.09100
C1036       C  0.44466488  0.75116869  0.56883698    -0.10700
C1037       C  0.38724497  0.97314784  0.58172609    -0.09100
C1038       C  0.38052950  0.94275973  0.58359636    -0.10700
C1039       C  0.27967045  0.55714613  0.57048922    -0.09100
C1040       C  0.31023219  0.56384417  0.57005023    -0.10700
C1041       C  0.06566821  0.62852659  0.58558206    -0.09100
C1042       C  0.08928503  0.62197381  0.58337174    -0.10700
C1043       C  0.49374119  0.62463191  0.50721241    -0.09100
C1044       C  0.01330682  0.63313968  0.49224070    -0.10700
Zn1045     Zn  0.98428117  0.14897647  0.57000473     1.49700
Zn1046     Zn  0.91360686  0.07666514  0.55716005     1.49400
Zn1047     Zn  0.95542002  0.08195390  0.59825167     1.49100
Zn1048     Zn  0.91390427  0.12215058  0.59585930     1.49500
O1049       O  0.94141706  0.10729327  0.57996398    -1.80000
O1050       O  0.99221755  0.14203450  0.54065296    -0.70600
O1051       O  0.89919622  0.02534675  0.56405757    -0.70400
O1052       O  0.50528204  0.09583059  0.59150035    -0.70000
O1053       O  0.94397657  0.09280684  0.52993419    -0.70600
O1054       O  0.52853959  0.15326410  0.58306723    -0.70200
O1055       O  0.92385588  0.02957799  0.59483250    -0.70800
O1056       O  0.92246995  0.12173576  0.62690014    -0.70200
O1057       O  0.86523030  0.07439884  0.55649097    -0.71000
O1058       O  0.95357808  0.09370352  0.62789739    -0.70400
O1059       O  0.86245428  0.09058092  0.58893184    -0.70800
O1060       O  0.92637971  0.17115357  0.58630517    -0.70700
O1061       O  0.97885492  0.19281352  0.57034845    -0.70500
C1062       C  0.97532146  0.11936492  0.52672479     0.81300
C1063       C  0.90378732  0.01113333  0.58015734     0.81800
C1064       C  0.53179970  0.12621670  0.58714736     0.80700
C1065       C  0.93915981  0.10927071  0.63691156     0.81100
C1066       C  0.84772899  0.07660553  0.57182310     0.82200
C1067       C  0.95252300  0.19584033  0.57639239     0.81300
Zn1068     Zn  0.60319345  0.17795384  0.40123552     1.49700
Zn1069     Zn  0.54603032  0.12272630  0.43120858     1.49400
Zn1070     Zn  0.58497832  0.20180396  0.44349245     1.49100
Zn1071     Zn  0.52844891  0.17378344  0.40670781     1.49500
O1072       O  0.56606275  0.16993006  0.42043422    -1.80000
O1073       O  0.61592604  0.13961848  0.40343391    -0.70600
O1074       O  0.52923636  0.11977867  0.46047585    -0.70400
O1075       O  0.63957007  0.22577999  0.44291241    -0.70000
O1076       O  0.57876201  0.10289377  0.42747794    -0.70600
O1077       O  0.64775757  0.22236423  0.40898410    -0.70200
O1078       O  0.55761531  0.17652808  0.47021021    -0.70800
O1079       O  0.53296664  0.22196057  0.41431854    -0.70200
O1080       O  0.00132642  0.09236423  0.41650537    -0.71000
O1081       O  0.57472950  0.24129739  0.43873372    -0.70400
O1082       O  0.98085974  0.13034450  0.41487013    -0.70800
O1083       O  0.53343553  0.17059717  0.37544422    -0.70700
O1084       O  0.58747578  0.17709692  0.37178041    -0.70500
C1085       C  0.60456767  0.11220659  0.41490136     0.81300
C1086       C  0.53499626  0.14368177  0.47365901     0.81800
C1087       C  0.65961256  0.23495139  0.42683125     0.80700
C1088       C  0.55371110  0.24574507  0.42709516     0.81100
C1089       C  0.97575778  0.09865893  0.41578642     0.82200
C1090       C  0.55837090  0.17226034  0.36413927     0.81300
Zn1091     Zn  0.62210321  0.41516377  0.40287062     1.49700
Zn1092     Zn  0.58069761  0.45558806  0.40075899     1.49400
Zn1093     Zn  0.57726050  0.41454619  0.44226003     1.49100
Zn1094     Zn  0.64867936  0.48587459  0.42805347     1.49500
O1095       O  0.60702084  0.44245701  0.41885757    -1.80000
O1096       O  0.62079872  0.42316556  0.37183031    -0.70600
O1097       O  0.52869817  0.42463210  0.40573250    -0.70400
O1098       O  0.57395157  0.36553510  0.44250916    -0.70000
O1099       O  0.59064818  0.45216404  0.37090695    -0.70600
O1100       O  0.59091867  0.36354757  0.41010255    -0.70200
O1101       O  0.52592352  0.40100627  0.43679792    -0.70800
O1102       O  0.64262503  0.49369536  0.45759451    -0.70200
O1103       O  0.59479977  0.00588397  0.40626926    -0.71000
O1104       O  0.59475339  0.44467586  0.46931659    -0.70400
O1105       O  0.65201217  0.02986228  0.41482127    -0.70800
O1106       O  0.69299906  0.48139603  0.42684088    -0.70700
O1107       O  0.67151368  0.42845841  0.41168536    -0.70500
C1108       C  0.60686531  0.43848255  0.36182227     0.81300
C1109       C  0.51100928  0.40536174  0.42100939     0.81800
C1110       C  0.57631055  0.34832835  0.42711729     0.80700
C1111       C  0.62092384  0.47635724  0.47202442     0.81100
C1112       C  0.62496693  0.03272909  0.41029772     0.82200
C1113       C  0.69633166  0.45518398  0.42094002     0.81300
Zn1114     Zn  0.62356815  0.04853230  0.56667147     1.49700
Zn1115     Zn  0.70287168  0.08769383  0.55420492     1.49400
Zn1116     Zn  0.67808334  0.10734419  0.59563843     1.49100
Zn1117     Zn  0.67462429  0.03240799  0.59211854     1.49500
O1118       O  0.67065224  0.06937282  0.57736965    -1.80000
O1119       O  0.62121251  0.03044012  0.53787037    -0.70600
O1120       O  0.72710956  0.14251867  0.55385534    -0.70400
O1121       O  0.63922675  0.11905463  0.59299601    -0.70000
O1122       O  0.67791967  0.05953932  0.52783474    -0.70600
O1123       O  0.60330441  0.08113740  0.56928484    -0.70200
O1124       O  0.72214355  0.15210076  0.58735856    -0.70800
O1125       O  0.67276954  0.03966768  0.62309200    -0.70200
O1126       O  0.74205581  0.07719291  0.55940930    -0.71000
O1127       O  0.67765166  0.09326847  0.62534638    -0.70400
O1128       O  0.72211870  0.03576047  0.58433428    -0.70800
O1129       O  0.63072752  0.48416391  0.58610917    -0.70700
O1130       O  0.59303755  0.50463143  0.58239538    -0.70500
C1131       C  0.64527546  0.03631672  0.52467355     0.81300
C1132       C  0.73552372  0.16327228  0.56948002     0.81800
C1133       C  0.61202135  0.10711565  0.58152897     0.80700
C1134       C  0.67389652  0.06494154  0.63370539     0.81100
C1135       C  0.74605417  0.05609617  0.57133893     0.82200
C1136       C  0.59916797  0.47917963  0.58508953     0.81300
Zn1137     Zn  0.83941948  0.36181565  0.43112349     1.49700
Zn1138     Zn  0.84071412  0.43431588  0.44341997     1.49400
Zn1139     Zn  0.88047137  0.42932282  0.40364411     1.49100
Zn1140     Zn  0.79886861  0.39017612  0.40406987     1.49500
O1141       O  0.83964172  0.40395722  0.42090812    -1.80000
O1142       O  0.85294873  0.36894595  0.46060541    -0.70600
O1143       O  0.87684578  0.48569449  0.43664188    -0.70400
O1144       O  0.91567872  0.41518263  0.41175530    -0.70000
O1145       O  0.85513425  0.41912892  0.47070174    -0.70600
O1146       O  0.88050446  0.35750344  0.41932353    -0.70200
O1147       O  0.90062415  0.48157497  0.40698096    -0.70800
O1148       O  0.81027837  0.39172672  0.37349528    -0.70200
O1149       O  0.79421740  0.43582632  0.44340143    -0.71000
O1150       O  0.86935595  0.41823288  0.37370407    -0.70400
O1151       O  0.77933471  0.42208379  0.41025911    -0.70800
O1152       O  0.76105398  0.34109644  0.41252102    -0.70700
O1153       O  0.78966363  0.31831286  0.42969000    -0.70500
C1154       C  0.85946697  0.39238549  0.47418370     0.81300
C1155       C  0.89702532  0.49993257  0.42101809     0.81800
C1156       C  0.91126750  0.38458822  0.41611198     0.80700
C1157       C  0.83997875  0.40373265  0.36410805     0.81100
C1158       C  0.77658229  0.43492578  0.42735424     0.82200
C1159       C  0.76111658  0.31586217  0.42259379     0.81300
Zn1160     Zn  0.93126773  0.38920783  0.56805674     1.49700
Zn1161     Zn  0.89276894  0.31078900  0.55420674     1.49400
Zn1162     Zn  0.93342230  0.33300798  0.59648407     1.49100
Zn1163     Zn  0.86222401  0.33636093  0.59111207     1.49500
O1164       O  0.90443759  0.34141243  0.57771443    -1.80000
O1165       O  0.91634019  0.39316790  0.53930405    -0.70600
O1166       O  0.92402193  0.28750224  0.55418065    -0.70400
O1167       O  0.98452622  0.37126940  0.59464684    -0.70000
O1168       O  0.89007933  0.33708434  0.52831913    -0.70600
O1169       O  0.98396678  0.40862210  0.57114052    -0.70200
O1170       O  0.93354426  0.28902268  0.58824728    -0.70800
O1171       O  0.86868314  0.33640851  0.62226258    -0.70200
O1172       O  0.84340347  0.27034891  0.55832263    -0.71000
O1173       O  0.91726561  0.33160468  0.62569601    -0.70400
O1174       O  0.81920588  0.28863786  0.58234952    -0.70800
O1175       O  0.85844706  0.38058512  0.58427134    -0.70700
O1176       O  0.91692045  0.41853850  0.58409225    -0.70500
C1177       C  0.89877049  0.36974769  0.52577858     0.81300
C1178       C  0.93378819  0.27734565  0.57027627     0.81800
C1179       C  0.00055347  0.39886167  0.58331690     0.80700
C1180       C  0.89184219  0.33448124  0.63343090     0.81100
C1181       C  0.81721166  0.26528843  0.56954382     0.82200
C1182       C  0.88505496  0.41231557  0.58438028     0.81300
Zn1183     Zn  0.97005453  0.22062916  0.11298318     1.49700
Zn1184     Zn  0.54908724  0.26113958  0.09920995     1.49400
Zn1185     Zn  0.49655006  0.19372304  0.07448960     1.49100
Zn1186     Zn  0.49260996  0.26476207  0.07125389     1.49500
O1187       O  0.50142543  0.23471727  0.08935862    -1.80000
O1188       O  0.99608214  0.21831156  0.13906913    -0.70600
O1189       O  0.57868291  0.24632132  0.08368036    -0.70400
O1190       O  0.94942645  0.14978973  0.08257946    -0.70000
O1191       O  0.55245681  0.24685703  0.12837096    -0.70600
O1192       O  0.93092242  0.17068540  0.10836839    -0.70200
O1193       O  0.53977619  0.18839650  0.07989786    -0.70800
O1194       O  0.99205893  0.25122434  0.04153012    -0.70200
O1195       O  0.56933671  0.31395399  0.09541018    -0.71000
O1196       O  0.99753532  0.20284627  0.04362297    -0.70400
O1197       O  0.53099072  0.31570032  0.07331697    -0.70800
O1198       O  0.94837214  0.26422833  0.08007551    -0.70700
O1199       O  0.94506077  0.25030131  0.11366941    -0.70500
C1200       C  0.52897047  0.22857266  0.14190223     0.81300
C1201       C  0.57162439  0.21447366  0.08076780     0.81800
C1202       C  0.92626986  0.14586926  0.09613327     0.80700
C1203       C  0.99580967  0.22683438  0.03308882     0.81100
C1204       C  0.55938903  0.33109902  0.08378873     0.82200
C1205       C  0.93552915  0.26185310  0.09809483     0.81300
Zn1206     Zn  0.59090344  0.21316368  0.23580784     1.49700
Zn1207     Zn  0.59372080  0.15677501  0.26416111     1.49400
Zn1208     Zn  0.52209774  0.15976747  0.25910327     1.49100
Zn1209     Zn  0.55226101  0.13500048  0.22138494     1.49500
O1210       O  0.56430403  0.16509680  0.24533135    -1.80000
O1211       O  0.64349154  0.23357465  0.23927282    -0.70600
O1212       O  0.57755471  0.15545473  0.29374231    -0.70400
O1213       O  0.51781971  0.20361649  0.25280487    -0.70000
O1214       O  0.64476670  0.19619144  0.26247501    -0.70600
O1215       O  0.57613481  0.24205846  0.25183668    -0.70200
O1216       O  0.52870599  0.15977111  0.29031911    -0.70800
O1217       O  0.00187019  0.09577546  0.22463054    -0.70200
O1218       O  0.59474974  0.11301041  0.25529653    -0.71000
O1219       O  0.97867051  0.11313130  0.24975889    -0.70400
O1220       O  0.58211007  0.11023287  0.22155427    -0.70800
O1221       O  0.55187361  0.16218810  0.19517973    -0.70700
O1222       O  0.57722072  0.21776957  0.20682374    -0.70500
C1223       C  0.66039666  0.22424091  0.25143670     0.81300
C1224       C  0.55215949  0.15843906  0.30153042     0.81800
C1225       C  0.54418586  0.23541208  0.25281750     0.80700
C1226       C  0.97585767  0.09073048  0.23603676     0.81100
C1227       C  0.59332861  0.10064697  0.23725722     0.82200
C1228       C  0.56086065  0.19495684  0.19279814     0.81300
Zn1229     Zn  0.79266115  0.38265630  0.26385942     1.49700
Zn1230     Zn  0.87430375  0.42392510  0.25932329     1.49400
Zn1231     Zn  0.82873427  0.35273549  0.23493243     1.49100
Zn1232     Zn  0.82701198  0.42370796  0.22177676     1.49500
O1233       O  0.83079654  0.39605317  0.24460340    -1.80000
O1234       O  0.80858758  0.38707783  0.29312247    -0.70600
O1235       O  0.90981231  0.41056539  0.24960783    -0.70400
O1236       O  0.78951492  0.30865281  0.24909247    -0.70000
O1237       O  0.86759865  0.41745320  0.29046001    -0.70600
O1238       O  0.75634844  0.33200479  0.25912574    -0.70200
O1239       O  0.87779713  0.35771004  0.23448971    -0.70800
O1240       O  0.81120801  0.39286909  0.19507676    -0.70200
O1241       O  0.89433500  0.47504973  0.25168219    -0.71000
O1242       O  0.81216258  0.34447205  0.20594240    -0.70400
O1243       O  0.87301458  0.47231385  0.21991002    -0.70800
O1244       O  0.79029642  0.43781845  0.22916595    -0.70700
O1245       O  0.77094800  0.41330366  0.26024892    -0.70500
C1246       C  0.83921286  0.40193512  0.30128185     0.81300
C1247       C  0.90755259  0.38393361  0.24005128     0.81800
C1248       C  0.75980238  0.30534378  0.25468900     0.80700
C1249       C  0.80584138  0.36130824  0.19210860     0.81100
C1250       C  0.89394433  0.48978923  0.23472659     0.82200
C1251       C  0.77185758  0.43305347  0.24544486     0.81300
Zn1252     Zn  0.80703406  0.30327205  0.07429510     1.49700
Zn1253     Zn  0.73831815  0.28863213  0.09731047     1.49400
Zn1254     Zn  0.73525883  0.22869307  0.06983169     1.49100
Zn1255     Zn  0.77621274  0.24840661  0.11219739     1.49500
O1256       O  0.76463746  0.26687185  0.08821249    -1.80000
O1257       O  0.81181003  0.35197910  0.07925955    -0.70600
O1258       O  0.68579642  0.25616991  0.09368817    -0.70400
O1259       O  0.75117048  0.24266653  0.04041783    -0.70000
O1260       O  0.75365102  0.33268538  0.08117512    -0.70600
O1261       O  0.80060746  0.29557837  0.04332454    -0.70200
O1262       O  0.68425794  0.21638407  0.07143565    -0.70800
O1263       O  0.74590576  0.19382709  0.11258299    -0.70200
O1264       O  0.75180228  0.30673152  0.12625474    -0.71000
O1265       O  0.73503896  0.18454406  0.07871086    -0.70400
O1266       O  0.77726669  0.27653610  0.13796602    -0.70800
O1267       O  0.82604679  0.25836370  0.10884469    -0.70700
O1268       O  0.84995324  0.29936869  0.08380163    -0.70500
C1269       C  0.78565813  0.35768899  0.07914261     0.81300
C1270       C  0.66878517  0.22926063  0.08204530     0.81800
C1271       C  0.77696265  0.27054662  0.03240653     0.80700
C1272       C  0.73579408  0.17335175  0.09681044     0.81100
C1273       C  0.76836460  0.30033831  0.14023351     0.82200
C1274       C  0.85218391  0.27909584  0.09739656     0.81300
Zn1275     Zn  0.75051828  0.02811402  0.11068556     1.49700
Zn1276     Zn  0.77053447  0.00703109  0.06796452     1.49400
Zn1277     Zn  0.71100757  0.45008127  0.09620906     1.49100
Zn1278     Zn  0.69599899  0.00386401  0.07305777     1.49500
O1279       O  0.73249715  0.99813810  0.08674297    -1.80000
O1280       O  0.80489233  0.05206342  0.11087320    -0.70600
O1281       O  0.78264273  0.46801401  0.06945416    -0.70400
O1282       O  0.69282414  0.44552841  0.12530372    -0.70000
O1283       O  0.81487058  0.05071008  0.07699437    -0.70600
O1284       O  0.72230040  0.00127555  0.13673483    -0.70200
O1285       O  0.74362539  0.43012062  0.09242680    -0.70800
O1286       O  0.64772966  0.46023053  0.07923542    -0.70200
O1287       O  0.75644207  0.00937661  0.03847256    -0.71000
O1288       O  0.66693888  0.42122661  0.08047406    -0.70400
O1289       O  0.70313551  0.00475994  0.04190981    -0.70800
O1290       O  0.69964671  0.05057505  0.08242891    -0.70700
O1291       O  0.74050686  0.06797519  0.10726988    -0.70500
C1292       C  0.82570941  0.06233843  0.09513413     0.81300
C1293       C  0.77022142  0.43987463  0.08039791     0.81800
C1294       C  0.69877005  0.46846301  0.13919104     0.80700
C1295       C  0.64190921  0.42829440  0.07940596     0.81100
C1296       C  0.72828889  0.00677632  0.03069790     0.82200
C1297       C  0.71965766  0.07313683  0.09591927     0.81300
Zn1298     Zn  0.63696253  0.47127103  0.25673635     1.49700
Zn1299     Zn  0.56214387  0.40045216  0.26140633     1.49400
Zn1300     Zn  0.58210276  0.44317186  0.21923295     1.49100
Zn1301     Zn  0.62059982  0.40279126  0.23262591     1.49500
O1302       O  0.60015005  0.42980996  0.24269435    -1.80000
O1303       O  0.63002721  0.46333525  0.28784093    -0.70600
O1304       O  0.51825161  0.40036907  0.25272270    -0.70400
O1305       O  0.59158319  0.99271346  0.22395163    -0.70000
O1306       O  0.57589602  0.41554679  0.29089514    -0.70600
O1307       O  0.63270325  0.01481025  0.24870745    -0.70200
O1308       O  0.52765640  0.41224125  0.21884192    -0.70800
O1309       O  0.63783135  0.41673132  0.20339446    -0.70200
O1310       O  0.54931198  0.34939047  0.25975520    -0.71000
O1311       O  0.61049558  0.44586959  0.19302503    -0.70400
O1312       O  0.58756242  0.35004081  0.23654477    -0.70800
O1313       O  0.66529146  0.41756273  0.24764973    -0.70700
O1314       O  0.68508624  0.47588863  0.24993429    -0.70500
C1315       C  0.60437541  0.44019785  0.29885939     0.81300
C1316       C  0.50710266  0.40133702  0.23469584     0.81800
C1317       C  0.61218198  0.01796980  0.23579780     0.80700
C1318       C  0.63284140  0.43528064  0.19000135     0.81100
C1319       C  0.56112653  0.33341303  0.24874748     0.82200
C1320       C  0.69056045  0.44956671  0.24909184     0.81300
Zn1321     Zn  0.85084411  0.33007991  0.76308543     1.49700
Zn1322     Zn  0.92172970  0.32788300  0.77507022     1.49400
Zn1323     Zn  0.87861197  0.29209015  0.73440940     1.49100
Zn1324     Zn  0.92058274  0.37393628  0.73714860     1.49500
O1325       O  0.89331292  0.33118121  0.75277760    -1.80000
O1326       O  0.84363170  0.31408158  0.79212407    -0.70600
O1327       O  0.93606821  0.29142378  0.76752278    -0.70400
O1328       O  0.82893759  0.25598528  0.74177243    -0.70000
O1329       O  0.89177088  0.31233954  0.80227909    -0.70600
O1330       O  0.80593470  0.29011414  0.75043607    -0.70200
O1331       O  0.91031680  0.27117588  0.73701574    -0.70800
O1332       O  0.91097795  0.36580022  0.70627811    -0.70200
O1333       O  0.97011774  0.37408747  0.77579190    -0.71000
O1334       O  0.87955308  0.30657263  0.70498381    -0.70400
O1335       O  0.97198986  0.39305520  0.74336035    -0.70800
O1336       O  0.90921184  0.41062205  0.74743290    -0.70700
O1337       O  0.85686378  0.37976346  0.76353476    -0.70500
C1338       C  0.86051377  0.30746360  0.80569120     0.81300
C1339       C  0.93097251  0.27279776  0.75137675     0.81800
C1340       C  0.80255245  0.25972347  0.74652181     0.80700
C1341       C  0.89386941  0.33688819  0.69617434     0.81100
C1342       C  0.98721226  0.39371702  0.76027660     0.82200
C1343       C  0.88346623  0.40923135  0.75763778     0.81300
Zn1344     Zn  0.74473136  0.23969673  0.89073656     1.49700
Zn1345     Zn  0.74699843  0.28558659  0.92937876     1.49400
Zn1346     Zn  0.78921834  0.24595642  0.93055276     1.49100
Zn1347     Zn  0.81598592  0.31261242  0.90245150     1.49500
O1348       O  0.77387559  0.27088279  0.91295155    -1.80000
O1349       O  0.69678717  0.23823545  0.89044383    -0.70600
O1350       O  0.75692434  0.28514736  0.96011889    -0.70400
O1351       O  0.75729557  0.19348419  0.92779698    -0.70000
O1352       O  0.69547923  0.25354045  0.92327685    -0.70600
O1353       O  0.72954984  0.18852651  0.89806157    -0.70200
O1354       O  0.78898869  0.25806123  0.96021954    -0.70800
O1355       O  0.86128925  0.31744600  0.91460939    -0.70200
O1356       O  0.75833288  0.33432793  0.91997833    -0.71000
O1357       O  0.83865601  0.25992715  0.92262205    -0.70400
O1358       O  0.80965217  0.35617695  0.90270836    -0.70800
O1359       O  0.82259571  0.30418532  0.87326441    -0.70700
O1360       O  0.77435879  0.25404878  0.86345315    -0.70500
C1361       C  0.67998179  0.23994317  0.90628613     0.81300
C1362       C  0.77442926  0.27310442  0.96964620     0.81800
C1363       C  0.73546917  0.17470538  0.91385388     0.80700
C1364       C  0.86490428  0.29040472  0.91810852     0.81100
C1365       C  0.78352651  0.35897937  0.90948785     0.82200
C1366       C  0.80556604  0.28050459  0.85985778     0.81300
Zn1367     Zn  0.62410823  0.04870536  0.73690916     1.49700
Zn1368     Zn  0.66820571  0.09427953  0.77601664     1.49400
Zn1369     Zn  0.66649582  0.02149364  0.76374641     1.49100
Zn1370     Zn  0.70601927  0.08846573  0.73574370     1.49500
O1371       O  0.66571081  0.06324042  0.75345959    -1.80000
O1372       O  0.60353194  0.07993333  0.74390095    -0.70600
O1373       O  0.68252164  0.07880889  0.80333855    -0.70400
O1374       O  0.61736683  0.47738030  0.76246469    -0.70000
O1375       O  0.62219009  0.09675738  0.77630298    -0.70600
O1376       O  0.58742320  0.49891330  0.74549235    -0.70200
O1377       O  0.68043263  0.02868934  0.79324118    -0.70800
O1378       O  0.74172236  0.07486467  0.74329058    -0.70200
O1379       O  0.70520686  0.14550897  0.76910755    -0.71000
O1380       O  0.70729506  0.01738732  0.75147830    -0.70400
O1381       O  0.72680284  0.14078529  0.73879756    -0.70800
O1382       O  0.69411147  0.07676736  0.70603364    -0.70700
O1383       O  0.63504334  0.05032110  0.70593446    -0.70500
C1384       C  0.60267657  0.09433279  0.76087217     0.81300
C1385       C  0.68686941  0.05207042  0.80685200     0.81800
C1386       C  0.58841327  0.47403766  0.75546898     0.80700
C1387       C  0.73774867  0.04449337  0.74771208     0.81100
C1388       C  0.72464296  0.15945896  0.75316831     0.82200
C1389       C  0.66472430  0.06216848  0.69647210     0.81300
Zn1390     Zn  0.69195202  0.99969626  0.92574497     1.49700
Zn1391     Zn  0.76302687  0.99597579  0.93017570     1.49400
Zn1392     Zn  0.72018223  0.47209949  0.88840837     1.49100
Zn1393     Zn  0.75995730  0.05106164  0.90084413     1.49500
O1394       O  0.73327774  0.00380573  0.91156078    -1.80000
O1395       O  0.69972929  0.50057718  0.95689407    -0.70600
O1396       O  0.76356034  0.45199925  0.92199264    -0.70400
O1397       O  0.67071996  0.43237588  0.89352684    -0.70000
O1398       O  0.74808239  0.49529673  0.95976600    -0.70600
O1399       O  0.64812221  0.45204644  0.91775894    -0.70200
O1400       O  0.75112947  0.44834108  0.88822491    -0.70800
O1401       O  0.74406129  0.05394941  0.87210491    -0.70200
O1402       O  0.81388406  0.03466087  0.92762001    -0.71000
O1403       O  0.71672099  0.49732288  0.86211792    -0.70400
O1404       O  0.81274328  0.07058918  0.90332524    -0.70800
O1405       O  0.74681641  0.08148962  0.91661754    -0.70700
O1406       O  0.68833693  0.04398740  0.91893131    -0.70500
C1407       C  0.72316211  0.49869780  0.96783179     0.81300
C1408       C  0.76247524  0.43933185  0.90412083     0.81800
C1409       C  0.64518239  0.42810532  0.90511308     0.80700
C1410       C  0.72579822  0.02996941  0.85899583     0.81100
C1411       C  0.82961565  0.06162534  0.91577937     0.82200
C1412       C  0.71514167  0.07556639  0.91811490     0.81300
Zn1413     Zn  0.54384039  0.25865958  0.92976820     1.49700
Zn1414     Zn  0.96188825  0.21708476  0.93114757     1.49400
Zn1415     Zn  0.99993299  0.25974498  0.89049406     1.49100
Zn1416     Zn  0.00089798  0.18847688  0.90390627     1.49500
O1417       O  0.50204543  0.23143631  0.91345789    -1.80000
O1418       O  0.53326884  0.24970409  0.96071518    -0.70600
O1419       O  0.94116400  0.24853774  0.92726869    -0.70400
O1420       O  0.54583811  0.30836440  0.89006835    -0.70000
O1421       O  0.97411163  0.21829395  0.96088733    -0.70600
O1422       O  0.56431049  0.31038354  0.92255661    -0.70200
O1423       O  0.96270420  0.27382570  0.89662756    -0.70800
O1424       O  0.98724129  0.18139563  0.87440990    -0.70200
O1425       O  0.92593920  0.16740280  0.92441402    -0.71000
O1426       O  0.98636041  0.22978279  0.86345142    -0.70400
O1427       O  0.95988112  0.14385155  0.91655691    -0.70800
O1428       O  0.54987281  0.19330725  0.90530887    -0.70700
O1429       O  0.58038506  0.24559977  0.92127349    -0.70500
C1430       C  0.50362462  0.23265809  0.97031265     0.81300
C1431       C  0.94324688  0.26880947  0.91246585     0.81800
C1432       C  0.56520576  0.32556546  0.90548213     0.80700
C1433       C  0.98161390  0.19846471  0.86040352     0.81100
C1434       C  0.92960578  0.14074709  0.92040260     0.82200
C1435       C  0.57905710  0.21930052  0.91176894     0.81300
Zn1436     Zn  0.97494614  0.14118277  0.74145288     1.49700
Zn1437     Zn  0.90750892  0.12419619  0.76713507     1.49400
Zn1438     Zn  0.90356879  0.06619112  0.73785100     1.49100
Zn1439     Zn  0.94793130  0.08533510  0.77902191     1.49500
O1440       O  0.93403898  0.10391282  0.75608375    -1.80000
O1441       O  0.97819361  0.18919171  0.74751246    -0.70600
O1442       O  0.85464419  0.09073788  0.76530100    -0.70400
O1443       O  0.91769465  0.07997039  0.70817095    -0.70000
O1444       O  0.91984172  0.16775641  0.75132851    -0.79600
O1445       O  0.96642896  0.13354126  0.71046141    -0.70200
O1446       O  0.85290630  0.05409482  0.74075461    -0.70800
O1447       O  0.91671380  0.03062962  0.77967805    -0.70200
O1448       O  0.92424421  0.14293516  0.79564881    -0.71000
O1449       O  0.90295132  0.02170342  0.74609294    -0.70400
O1450       O  0.95225514  0.11406455  0.80524786    -0.70800
O1451       O  0.49717163  0.09499604  0.77329514    -0.70700
O1452       O  0.51922516  0.13778677  0.74914870    -0.70500
C1453       C  0.95124806  0.19363490  0.74871316     0.81300
C1454       C  0.83746785  0.06509331  0.75284426     0.81800
C1455       C  0.94260702  0.10810657  0.69981924     0.80700
C1456       C  0.90461181  0.01018373  0.76392963     0.81100
C1457       C  0.94302657  0.13741124  0.80851369     0.82200
C1458       C  0.52246222  0.11654513  0.76158561     0.81300
C1459       C  0.95594218  0.16004501  0.82649850    -0.09100
C1460       C  0.96809482  0.18004060  0.84108502    -0.10700
C1461       C  0.61292873  0.39413675  0.90430843    -0.09100
C1462       C  0.58954860  0.36329708  0.90385328    -0.10700
C1463       C  0.89782990  0.10692386  0.91912746    -0.09100
C1464       C  0.86736578  0.08371033  0.91730810    -0.10700
C1465       C  0.57820396  0.10754584  0.76238902    -0.09100
C1466       C  0.55477436  0.11491543  0.76204566    -0.10700
C1467       C  0.76934115  0.04230984  0.74950386    -0.09100
C1468       C  0.79972734  0.04948938  0.75150634    -0.10700
C1469       C  0.71316022  0.04002863  0.84090455    -0.09100
C1470       C  0.70087039  0.04772181  0.82623340    -0.10700
C1471       C  0.92184643  0.28533669  0.91369084    -0.09100
C1472       C  0.89877307  0.29273956  0.91589742    -0.10700
C1473       C  0.64242282  0.22701278  0.90540409    -0.09100
C1474       C  0.61208649  0.22033262  0.90765284    -0.10700
C1475       C  0.71828860  0.13676026  0.91585079    -0.09100
C1476       C  0.71099645  0.10621541  0.91771869    -0.10700
C1477       C  0.78104072  0.39010361  0.90475887    -0.09100
C1478       C  0.77384179  0.41346010  0.90253421    -0.10700
C1479       C  0.55523746  0.44194816  0.75945480    -0.09100
C1480       C  0.52480930  0.41822384  0.76146889    -0.10700
C1481       C  0.74590798  0.19738829  0.75132758    -0.09100
C1482       C  0.76884614  0.22790703  0.74876388    -0.10700
C1483       C  0.88580366  0.44244392  0.76301915    -0.09100
C1484       C  0.89308162  0.47291760  0.76557930    -0.10700
C1485       C  0.95497674  0.22830162  0.74818410    -0.09100
C1486       C  0.94767780  0.25160177  0.74951433    -0.10700
C1487       C  0.82361417  0.28470180  0.84042778    -0.09100
C1488       C  0.84234572  0.29382965  0.82514302    -0.10700
C1489       C  0.72438006  0.00469285  0.00856125    -0.09100
C1490       C  0.72238483  0.00158105  0.98997586    -0.10700
C1491       C  0.65520969  0.44647628  0.17171639    -0.09100
C1492       C  0.67623283  0.45695911  0.15740753    -0.10700
C1493       C  0.77719942  0.27533886  0.99174071    -0.09100
C1494       C  0.77848822  0.27417339  0.01032072    -0.10700
C1495       C  0.78545559  0.41740258  0.07856358    -0.09100
C1496       C  0.79108767  0.39294666  0.07779496    -0.10700
C1497       C  0.72042403  0.10645125  0.09800854    -0.09100
C1498       C  0.72586469  0.13655837  0.09891957    -0.10700
C1499       C  0.97020257  0.39066841  0.23288441    -0.09100
C1500       C  0.94011797  0.38465982  0.23510840    -0.10700
C1501       C  0.72572995  0.45478687  0.24870809    -0.09100
C1502       C  0.74987400  0.44886052  0.24702628    -0.10700
C1503       C  0.77954014  0.32267043  0.15835886    -0.09100
C1504       C  0.79137840  0.34259398  0.17298523    -0.10700
C1505       C  0.60399745  0.07431129  0.23500341    -0.09100
C1506       C  0.61036372  0.05018303  0.23505002    -0.10700
C1507       C  0.54544015  0.29568566  0.25092455    -0.09100
C1508       C  0.53918404  0.26548507  0.25268866    -0.10700
C1509       C  0.91880564  0.02727441  0.23266926    -0.09100
C1510       C  0.94305690  0.05761748  0.23376369    -0.10700
C1511       C  0.69801819  0.24710702  0.25338586    -0.09100
C1512       C  0.72824250  0.27114126  0.25471586    -0.10700
C1513       C  0.49941179  0.22733832  0.01099862    -0.09100
C1514       C  0.50277841  0.22974805  0.99244781    -0.10700
C1515       C  0.63119289  0.21425576  0.08021575    -0.09100
C1516       C  0.60129499  0.20896603  0.07941969    -0.10700
C1517       C  0.90874056  0.27180965  0.10031858    -0.09100
C1518       C  0.88441577  0.27774246  0.09945511    -0.10700
C1519       C  0.58208312  0.36871799  0.08154266    -0.09100
C1520       C  0.60660644  0.39859158  0.07964957    -0.10700
C1521       C  0.86253918  0.08875915  0.09742936    -0.09100
C1522       C  0.89277685  0.11324597  0.09720017    -0.10700
C1523       C  0.55026217  0.20657962  0.17448541    -0.09100
C1524       C  0.54006447  0.21726669  0.16014421    -0.10700
C1525       C  0.89005411  0.33641511  0.65550185    -0.09100
C1526       C  0.89124398  0.33793543  0.67410875    -0.10700
C1527       C  0.84066601  0.40174342  0.34200770    -0.09100
C1528       C  0.84126024  0.40162499  0.32338706    -0.10700
C1529       C  0.87371681  0.38816135  0.49344920    -0.09100
C1530       C  0.88624418  0.38034846  0.50791656    -0.10700
C1531       C  0.66962259  0.06117110  0.65579052    -0.09100
C1532       C  0.66582623  0.06000720  0.67433131    -0.10700
C1533       C  0.53832625  0.42063487  0.58496485    -0.09100
C1534       C  0.56872348  0.44432028  0.58598734    -0.10700
C1535       C  0.76155804  0.20048437  0.56744470    -0.09100
C1536       C  0.78526233  0.23116385  0.56811272    -0.10700
C1537       C  0.60871980  0.44012412  0.33961909    -0.09100
C1538       C  0.60774609  0.44118592  0.32098963    -0.10700
C1539       C  0.97309345  0.38920950  0.42034332    -0.09100
C1540       C  0.94268209  0.38207857  0.41834699    -0.10700
C1541       C  0.75193685  0.44783987  0.42806874    -0.09100
C1542       C  0.72829387  0.45440319  0.42546583    -0.10700
C1543       C  0.63513893  0.01428526  0.50636281    -0.09100
C1544       C  0.62669634  0.49467924  0.49152054    -0.10700
C1545       C  0.55330874  0.16720000  0.34211024    -0.09100
C1546       C  0.55114436  0.16220123  0.32363989    -0.10700
C1547       C  0.62002329  0.09000581  0.41284937    -0.09100
C1548       C  0.62697235  0.06657585  0.41102059    -0.10700
C1549       C  0.56281508  0.31055255  0.42867081    -0.09100
C1550       C  0.55538984  0.27971621  0.42804093    -0.10700
C1551       C  0.72736026  0.28443042  0.42649101    -0.09100
C1552       C  0.69680005  0.26090202  0.42828574    -0.10700
C1553       C  0.94086228  0.06834083  0.41706860    -0.09100
C1554       C  0.91760210  0.03788899  0.41924508    -0.10700
C1555       C  0.94147008  0.11192346  0.65906064    -0.09100
C1556       C  0.94309235  0.11132338  0.67767554    -0.10700
C1557       C  0.95101593  0.22733939  0.57139915    -0.09100
C1558       C  0.94466484  0.25116878  0.56883698    -0.10700
C1559       C  0.88724500  0.47314788  0.58172608    -0.09100
C1560       C  0.88052950  0.44275979  0.58359639    -0.10700
C1561       C  0.77967051  0.05714616  0.57048922    -0.09100
C1562       C  0.81023220  0.06384424  0.57005026    -0.10700
C1563       C  0.56566825  0.12852663  0.58558207    -0.09100
C1564       C  0.58928504  0.12197381  0.58337177    -0.10700
C1565       C  0.99374115  0.12463178  0.50721243    -0.09100
C1566       C  0.51330682  0.13313954  0.49224072    -0.10700
Zn1567     Zn  0.98428121  0.64897641  0.57000474     1.49700
Zn1568     Zn  0.91360695  0.57666520  0.55716005     1.49400
Zn1569     Zn  0.95542002  0.58195386  0.59825168     1.49100
Zn1570     Zn  0.91390422  0.62215054  0.59585931     1.49500
O1571       O  0.94141707  0.60729330  0.57996402    -1.80000
O1572       O  0.99221770  0.64203447  0.54065300    -0.70600
O1573       O  0.89919647  0.52534693  0.56405753    -0.70400
O1574       O  0.50528203  0.59583049  0.59150033    -0.70000
O1575       O  0.94397663  0.59280699  0.52993415    -0.70600
O1576       O  0.52853960  0.65326405  0.58306728    -0.70200
O1577       O  0.92385590  0.52957796  0.59483251    -0.70800
O1578       O  0.92246987  0.62173565  0.62690015    -0.70200
O1579       O  0.86523035  0.57439878  0.55649101    -0.71000
O1580       O  0.95357806  0.59370347  0.62789739    -0.70400
O1581       O  0.86245418  0.59058092  0.58893184    -0.70800
O1582       O  0.92637973  0.67115356  0.58630518    -0.70700
O1583       O  0.97885492  0.69281345  0.57034843    -0.70500
C1584       C  0.97532151  0.61936506  0.52672479     0.81300
C1585       C  0.90378740  0.51113344  0.58015731     0.81800
C1586       C  0.53179972  0.62621662  0.58714737     0.80700
C1587       C  0.93915979  0.60927066  0.63691155     0.81100
C1588       C  0.84772900  0.57660558  0.57182310     0.82200
C1589       C  0.95252305  0.69584022  0.57639239     0.81300
Zn1590     Zn  0.60319352  0.67795386  0.40123552     1.49700
Zn1591     Zn  0.54603034  0.62272631  0.43120859     1.49400
Zn1592     Zn  0.58497834  0.70180402  0.44349245     1.49100
Zn1593     Zn  0.52844898  0.67378342  0.40670781     1.49500
O1594       O  0.56606295  0.66993014  0.42043424    -1.80000
O1595       O  0.61592617  0.63961848  0.40343393    -0.70600
O1596       O  0.52923633  0.61977877  0.46047584    -0.70400
O1597       O  0.63957011  0.72578011  0.44291240    -0.70000
O1598       O  0.57876200  0.60289379  0.42747793    -0.70600
O1599       O  0.64775767  0.72236429  0.40898409    -0.70200
O1600       O  0.55761537  0.67652813  0.47021021    -0.70800
O1601       O  0.53296672  0.72196057  0.41431852    -0.70200
O1602       O  0.00132635  0.59236414  0.41650534    -0.71000
O1603       O  0.57472951  0.74129747  0.43873375    -0.70400
O1604       O  0.98085965  0.63034441  0.41487014    -0.70800
O1605       O  0.53343557  0.67059715  0.37544422    -0.70700
O1606       O  0.58747583  0.67709698  0.37178041    -0.70500
C1607       C  0.60456770  0.61220665  0.41490136     0.81300
C1608       C  0.53499632  0.64368182  0.47365901     0.81800
C1609       C  0.65961271  0.73495145  0.42683126     0.80700
C1610       C  0.55371108  0.74574500  0.42709514     0.81100
C1611       C  0.97575779  0.59865888  0.41578641     0.82200
C1612       C  0.55837087  0.67226023  0.36413928     0.81300
Zn1613     Zn  0.62210327  0.91516373  0.40287062     1.49700
Zn1614     Zn  0.58069768  0.95558805  0.40075898     1.49400
Zn1615     Zn  0.57726053  0.91454615  0.44226003     1.49100
Zn1616     Zn  0.64867937  0.98587459  0.42805346     1.49500
O1617       O  0.60702078  0.94245680  0.41885757    -1.80000
O1618       O  0.62079872  0.92316552  0.37183031    -0.70600
O1619       O  0.52869826  0.92463209  0.40573249    -0.70400
O1620       O  0.57395152  0.86553496  0.44250917    -0.70000
O1621       O  0.59064827  0.95216403  0.37090696    -0.70600
O1622       O  0.59091873  0.86354756  0.41010256    -0.70200
O1623       O  0.52592369  0.90100628  0.43679790    -0.70800
O1624       O  0.64262502  0.99369537  0.45759451    -0.70200
O1625       O  0.59479984  0.50588406  0.40626928    -0.71000
O1626       O  0.59475336  0.94467579  0.46931657    -0.70400
O1627       O  0.65201226  0.52986231  0.41482125    -0.70800
O1628       O  0.69299902  0.98139602  0.42684089    -0.70700
O1629       O  0.67151381  0.92845841  0.41168533    -0.70500
C1630       C  0.60686539  0.93848260  0.36182227     0.81300
C1631       C  0.51100948  0.90536180  0.42100940     0.81800
C1632       C  0.57631064  0.84832841  0.42711730     0.80700
C1633       C  0.62092376  0.97635730  0.47202443     0.81100
C1634       C  0.62496709  0.53272913  0.41029772     0.82200
C1635       C  0.69633172  0.95518398  0.42094000     0.81300
Zn1636     Zn  0.62356812  0.54853232  0.56667147     1.49700
Zn1637     Zn  0.70287162  0.58769382  0.55420494     1.49400
Zn1638     Zn  0.67808330  0.60734425  0.59563845     1.49100
Zn1639     Zn  0.67462422  0.53240799  0.59211855     1.49500
O1640       O  0.67065217  0.56937286  0.57736968    -1.80000
O1641       O  0.62121247  0.53044012  0.53787034    -0.70600
O1642       O  0.72710951  0.64251870  0.55385534    -0.70400
O1643       O  0.63922675  0.61905477  0.59299601    -0.70000
O1644       O  0.67791962  0.55953931  0.52783472    -0.70600
O1645       O  0.60330441  0.58113749  0.56928484    -0.70200
O1646       O  0.72214361  0.65210088  0.58735857    -0.70800
O1647       O  0.67276949  0.53966771  0.62309198    -0.70200
O1648       O  0.74205574  0.57719291  0.55940931    -0.71000
O1649       O  0.67765158  0.59326846  0.62534639    -0.70400
O1650       O  0.72211853  0.53576042  0.58433424    -0.70800
O1651       O  0.63072766  0.98416392  0.58610915    -0.70700
O1652       O  0.59303769  0.00463149  0.58239538    -0.70500
C1653       C  0.64527540  0.53631687  0.52467354     0.81300
C1654       C  0.73552376  0.66327238  0.56948001     0.81800
C1655       C  0.61202131  0.60711573  0.58152896     0.80700
C1656       C  0.67389656  0.56494160  0.63370543     0.81100
C1657       C  0.74605412  0.55609620  0.57133892     0.82200
C1658       C  0.59916816  0.97917968  0.58508955     0.81300
Zn1659     Zn  0.83941950  0.86181564  0.43112349     1.49700
Zn1660     Zn  0.84071416  0.93431596  0.44341997     1.49400
Zn1661     Zn  0.88047137  0.92932284  0.40364411     1.49100
Zn1662     Zn  0.79886859  0.89017614  0.40406989     1.49500
O1663       O  0.83964184  0.90395731  0.42090815    -1.80000
O1664       O  0.85294880  0.86894599  0.46060541    -0.70600
O1665       O  0.87684578  0.98569458  0.43664190    -0.70400
O1666       O  0.91567884  0.91518270  0.41175531    -0.70000
O1667       O  0.85513428  0.91912898  0.47070171    -0.70600
O1668       O  0.88050458  0.85750344  0.41932352    -0.70200
O1669       O  0.90062414  0.98157495  0.40698100    -0.70800
O1670       O  0.81027830  0.89172676  0.37349529    -0.70200
O1671       O  0.79421749  0.93582639  0.44340144    -0.71000
O1672       O  0.86935587  0.91823279  0.37370407    -0.70400
O1673       O  0.77933470  0.92208387  0.41025912    -0.70800
O1674       O  0.76105397  0.84109647  0.41252105    -0.70700
O1675       O  0.78966361  0.81831281  0.42968998    -0.70500
C1676       C  0.85946692  0.89238551  0.47418373     0.81300
C1677       C  0.89702526  0.99993266  0.42101809     0.81800
C1678       C  0.91126762  0.88458830  0.41611199     0.80700
C1679       C  0.83997866  0.90373261  0.36410805     0.81100
C1680       C  0.77658235  0.93492597  0.42735424     0.82200
C1681       C  0.76111651  0.81586213  0.42259378     0.81300
Zn1682     Zn  0.93126780  0.88920789  0.56805674     1.49700
Zn1683     Zn  0.89276891  0.81078898  0.55420674     1.49400
Zn1684     Zn  0.93342229  0.83300799  0.59648407     1.49100
Zn1685     Zn  0.86222400  0.83636094  0.59111207     1.49500
O1686       O  0.90443758  0.84141238  0.57771441    -1.80000
O1687       O  0.91634032  0.89316799  0.53930401    -0.70600
O1688       O  0.92402179  0.78750212  0.55418066    -0.70400
O1689       O  0.98452615  0.87126943  0.59464683    -0.70000
O1690       O  0.89007929  0.83708436  0.52831914    -0.70600
O1691       O  0.98396693  0.90862221  0.57114053    -0.70200
O1692       O  0.93354433  0.78902273  0.58824727    -0.70800
O1693       O  0.86868312  0.83640851  0.62226260    -0.70200
O1694       O  0.84340339  0.77034890  0.55832262    -0.71000
O1695       O  0.91726559  0.83160464  0.62569600    -0.70400
O1696       O  0.81920575  0.78863777  0.58234955    -0.70800
O1697       O  0.85844704  0.88058509  0.58427134    -0.70700
O1698       O  0.91692042  0.91853855  0.58409225    -0.70500
C1699       C  0.89877053  0.86974778  0.52577858     0.81300
C1700       C  0.93378815  0.77734568  0.57027625     0.81800
C1701       C  0.00055353  0.89886171  0.58331692     0.80700
C1702       C  0.89184215  0.83448110  0.63343091     0.81100
C1703       C  0.81721150  0.76528837  0.56954382     0.82200
C1704       C  0.88505491  0.91231559  0.58438028     0.81300
Zn1705     Zn  0.97005448  0.72062909  0.11298317     1.49700
Zn1706     Zn  0.54908715  0.76113952  0.09920996     1.49400
Zn1707     Zn  0.49655006  0.69372297  0.07448958     1.49100
Zn1708     Zn  0.49260995  0.76476205  0.07125392     1.49500
O1709       O  0.50142524  0.73471716  0.08935861    -1.80000
O1710       O  0.99608215  0.71831148  0.13906909    -0.70600
O1711       O  0.57868286  0.74632127  0.08368037    -0.70400
O1712       O  0.94942644  0.64978971  0.08257948    -0.70000
O1713       O  0.55245679  0.74685707  0.12837096    -0.70600
O1714       O  0.93092238  0.67068540  0.10836838    -0.70200
O1715       O  0.53977620  0.68839645  0.07989786    -0.70800
O1716       O  0.99205895  0.75122433  0.04153012    -0.70200
O1717       O  0.56933670  0.81395392  0.09541013    -0.71000
O1718       O  0.99753543  0.70284632  0.04362298    -0.70400
O1719       O  0.53099069  0.81570026  0.07331700    -0.70800
O1720       O  0.94837206  0.76422835  0.08007553    -0.70700
O1721       O  0.94506077  0.75030134  0.11366942    -0.70500
C1722       C  0.52897046  0.72857271  0.14190223     0.81300
C1723       C  0.57162446  0.71447367  0.08076780     0.81800
C1724       C  0.92626980  0.64586926  0.09613326     0.80700
C1725       C  0.99580961  0.72683431  0.03308881     0.81100
C1726       C  0.55938899  0.83109895  0.08378871     0.82200
C1727       C  0.93552907  0.76185294  0.09809484     0.81300
Zn1728     Zn  0.59090337  0.71316363  0.23580784     1.49700
Zn1729     Zn  0.59372078  0.65677505  0.26416111     1.49400
Zn1730     Zn  0.52209774  0.65976746  0.25910327     1.49100
Zn1731     Zn  0.55226095  0.63500051  0.22138494     1.49500
O1732       O  0.56430395  0.66509687  0.24533134    -1.80000
O1733       O  0.64349148  0.73357466  0.23927282    -0.70600
O1734       O  0.57755470  0.65545472  0.29374232    -0.70400
O1735       O  0.51781971  0.70361643  0.25280487    -0.70000
O1736       O  0.64476674  0.69619154  0.26247503    -0.70600
O1737       O  0.57613476  0.74205841  0.25183669    -0.70200
O1738       O  0.52870604  0.65977112  0.29031911    -0.70800
O1739       O  0.00187024  0.59577555  0.22463054    -0.70200
O1740       O  0.59474967  0.61301050  0.25529652    -0.71000
O1741       O  0.97867053  0.61313128  0.24975891    -0.70400
O1742       O  0.58210995  0.61023290  0.22155427    -0.70800
O1743       O  0.55187361  0.66218813  0.19517970    -0.70700
O1744       O  0.57722070  0.71776958  0.20682374    -0.70500
C1745       C  0.66039664  0.72424099  0.25143670     0.81300
C1746       C  0.55215950  0.65843909  0.30153042     0.81800
C1747       C  0.54418580  0.73541200  0.25281750     0.80700
C1748       C  0.97585774  0.59073056  0.23603676     0.81100
C1749       C  0.59332851  0.60064696  0.23725722     0.82200
C1750       C  0.56086057  0.69495685  0.19279815     0.81300
Zn1751     Zn  0.79266113  0.88265628  0.26385941     1.49700
Zn1752     Zn  0.87430384  0.92392518  0.25932330     1.49400
Zn1753     Zn  0.82873432  0.85273553  0.23493243     1.49100
Zn1754     Zn  0.82701200  0.92370797  0.22177677     1.49500
O1755       O  0.83079665  0.89605319  0.24460343    -1.80000
O1756       O  0.80858751  0.88707779  0.29312246    -0.70600
O1757       O  0.90981243  0.91056546  0.24960784    -0.70400
O1758       O  0.78951502  0.80865289  0.24909246    -0.70000
O1759       O  0.86759859  0.91745320  0.29046002    -0.70600
O1760       O  0.75634842  0.83200475  0.25912571    -0.70200
O1761       O  0.87779720  0.85771015  0.23448967    -0.70800
O1762       O  0.81120803  0.89286909  0.19507677    -0.70200
O1763       O  0.89433512  0.97504983  0.25168222    -0.71000
O1764       O  0.81216261  0.84447205  0.20594241    -0.70400
O1765       O  0.87301461  0.97231390  0.21991005    -0.70800
O1766       O  0.79029635  0.93781837  0.22916592    -0.70700
O1767       O  0.77094790  0.91330358  0.26024891    -0.70500
C1768       C  0.83921278  0.90193508  0.30128185     0.81300
C1769       C  0.90755266  0.88393369  0.24005132     0.81800
C1770       C  0.75980244  0.80534377  0.25468898     0.80700
C1771       C  0.80584132  0.86130819  0.19210860     0.81100
C1772       C  0.89394452  0.98978930  0.23472658     0.82200
C1773       C  0.77185754  0.93305348  0.24544486     0.81300
Zn1774     Zn  0.80703406  0.80327212  0.07429512     1.49700
Zn1775     Zn  0.73831810  0.78863209  0.09731046     1.49400
Zn1776     Zn  0.73525877  0.72869308  0.06983168     1.49100
Zn1777     Zn  0.77621269  0.74840662  0.11219739     1.49500
O1778       O  0.76463746  0.76687192  0.08821247    -1.80000
O1779       O  0.81181008  0.85197918  0.07925957    -0.70600
O1780       O  0.68579632  0.75616990  0.09368818    -0.70400
O1781       O  0.75117044  0.74266648  0.04041780    -0.70000
O1782       O  0.75365104  0.83268539  0.08117511    -0.70600
O1783       O  0.80060740  0.79557833  0.04332454    -0.70200
O1784       O  0.68425788  0.71638402  0.07143567    -0.70800
O1785       O  0.74590563  0.69382703  0.11258300    -0.70200
O1786       O  0.75180226  0.80673154  0.12625471    -0.71000
O1787       O  0.73503891  0.68454402  0.07871086    -0.70400
O1788       O  0.77726664  0.77653607  0.13796604    -0.70800
O1789       O  0.82604671  0.75836364  0.10884464    -0.70700
O1790       O  0.84995322  0.79936874  0.08380166    -0.70500
C1791       C  0.78565820  0.85768901  0.07914262     0.81300
C1792       C  0.66878507  0.72926066  0.08204531     0.81800
C1793       C  0.77696251  0.77054652  0.03240652     0.80700
C1794       C  0.73579402  0.67335178  0.09681045     0.81100
C1795       C  0.76836454  0.80033831  0.14023352     0.82200
C1796       C  0.85218381  0.77909586  0.09739655     0.81300
Zn1797     Zn  0.75051826  0.52811412  0.11068557     1.49700
Zn1798     Zn  0.77053445  0.50703109  0.06796453     1.49400
Zn1799     Zn  0.71100751  0.95008122  0.09620906     1.49100
Zn1800     Zn  0.69599897  0.50386402  0.07305777     1.49500
O1801       O  0.73249716  0.49813816  0.08674298    -1.80000
O1802       O  0.80489228  0.55206339  0.11087322    -0.70600
O1803       O  0.78264273  0.96801394  0.06945409    -0.70400
O1804       O  0.69282406  0.94552844  0.12530370    -0.70000
O1805       O  0.81487041  0.55071005  0.07699437    -0.70600
O1806       O  0.72230031  0.50127554  0.13673483    -0.70200
O1807       O  0.74362544  0.93012069  0.09242678    -0.70800
O1808       O  0.64772964  0.96023054  0.07923541    -0.70200
O1809       O  0.75644207  0.50937651  0.03847257    -0.71000
O1810       O  0.66693885  0.92122664  0.08047405    -0.70400
O1811       O  0.70313552  0.50475988  0.04190980    -0.70800
O1812       O  0.69964670  0.55057507  0.08242891    -0.70700
O1813       O  0.74050689  0.56797541  0.10726986    -0.70500
C1814       C  0.82570928  0.56233851  0.09513412     0.81300
C1815       C  0.77022142  0.93987469  0.08039785     0.81800
C1816       C  0.69877007  0.96846306  0.13919104     0.80700
C1817       C  0.64190919  0.92829445  0.07940596     0.81100
C1818       C  0.72828897  0.50677625  0.03069790     0.82200
C1819       C  0.71965761  0.57313688  0.09591925     0.81300
Zn1820     Zn  0.63696255  0.97127108  0.25673634     1.49700
Zn1821     Zn  0.56214382  0.90045211  0.26140636     1.49400
Zn1822     Zn  0.58210279  0.94317183  0.21923297     1.49100
Zn1823     Zn  0.62059981  0.90279128  0.23262591     1.49500
O1824       O  0.60015010  0.92981001  0.24269440    -1.80000
O1825       O  0.63002718  0.96333534  0.28784093    -0.70600
O1826       O  0.51825155  0.90036901  0.25272270    -0.70400
O1827       O  0.59158310  0.49271347  0.22395161    -0.70000
O1828       O  0.57589604  0.91554675  0.29089516    -0.70600
O1829       O  0.63270317  0.51481015  0.24870746    -0.70200
O1830       O  0.52765642  0.91224127  0.21884191    -0.70800
O1831       O  0.63783135  0.91673134  0.20339445    -0.70200
O1832       O  0.54931188  0.84939042  0.25975519    -0.71000
O1833       O  0.61049560  0.94586961  0.19302504    -0.70400
O1834       O  0.58756233  0.85004074  0.23654476    -0.70800
O1835       O  0.66529147  0.91756282  0.24764971    -0.70700
O1836       O  0.68508625  0.97588867  0.24993431    -0.70500
C1837       C  0.60437538  0.94019777  0.29885938     0.81300
C1838       C  0.50710274  0.90133705  0.23469583     0.81800
C1839       C  0.61218192  0.51796981  0.23579781     0.80700
C1840       C  0.63284156  0.93528082  0.19000139     0.81100
C1841       C  0.56112646  0.83341301  0.24874747     0.82200
C1842       C  0.69056049  0.94956676  0.24909183     0.81300
Zn1843     Zn  0.85084417  0.83007988  0.76308544     1.49700
Zn1844     Zn  0.92172966  0.82788297  0.77507023     1.49400
Zn1845     Zn  0.87861203  0.79209011  0.73440940     1.49100
Zn1846     Zn  0.92058274  0.87393624  0.73714859     1.49500
O1847       O  0.89331280  0.83118101  0.75277758    -1.80000
O1848       O  0.84363165  0.81408148  0.79212403    -0.70600
O1849       O  0.93606810  0.79142369  0.76752283    -0.70400
O1850       O  0.82893765  0.75598518  0.74177242    -0.70000
O1851       O  0.89177088  0.81233958  0.80227910    -0.70600
O1852       O  0.80593484  0.79011412  0.75043602    -0.70200
O1853       O  0.91031693  0.77117583  0.73701571    -0.70800
O1854       O  0.91097795  0.86580023  0.70627810    -0.70200
O1855       O  0.97011761  0.87408730  0.77579187    -0.71000
O1856       O  0.87955314  0.80657261  0.70498382    -0.70400
O1857       O  0.97198982  0.89305513  0.74336035    -0.70800
O1858       O  0.90921191  0.91062206  0.74743288    -0.70700
O1859       O  0.85686388  0.87976344  0.76353478    -0.70500
C1860       C  0.86051377  0.80746365  0.80569120     0.81300
C1861       C  0.93097254  0.77279772  0.75137678     0.81800
C1862       C  0.80255254  0.75972332  0.74652181     0.80700
C1863       C  0.89386956  0.83688821  0.69617433     0.81100
C1864       C  0.98721221  0.89371698  0.76027658     0.82200
C1865       C  0.88346632  0.90923135  0.75763779     0.81300
Zn1866     Zn  0.74473145  0.73969676  0.89073656     1.49700
Zn1867     Zn  0.74699849  0.78558659  0.92937872     1.49400
Zn1868     Zn  0.78921840  0.74595636  0.93055278     1.49100
Zn1869     Zn  0.81598594  0.81261241  0.90245151     1.49500
O1870       O  0.77387581  0.77088278  0.91295157    -1.80000
O1871       O  0.69678727  0.73823549  0.89044385    -0.70600
O1872       O  0.75692440  0.78514741  0.96011892    -0.70400
O1873       O  0.75729561  0.69348413  0.92779699    -0.70000
O1874       O  0.69547921  0.75354049  0.92327683    -0.70600
O1875       O  0.72955001  0.68852660  0.89806153    -0.70200
O1876       O  0.78898871  0.75806119  0.96021954    -0.70800
O1877       O  0.86128926  0.81744601  0.91460942    -0.70200
O1878       O  0.75833297  0.83432795  0.91997829    -0.71000
O1879       O  0.83865609  0.75992711  0.92262202    -0.70400
O1880       O  0.80965220  0.85617698  0.90270838    -0.70800
O1881       O  0.82259581  0.80418536  0.87326441    -0.70700
O1882       O  0.77435886  0.75404886  0.86345314    -0.70500
C1883       C  0.67998189  0.73994314  0.90628613     0.81300
C1884       C  0.77442927  0.77310442  0.96964619     0.81800
C1885       C  0.73546918  0.67470536  0.91385387     0.80700
C1886       C  0.86490430  0.79040465  0.91810849     0.81100
C1887       C  0.78352657  0.85897936  0.90948786     0.82200
C1888       C  0.80556617  0.78050461  0.85985781     0.81300
Zn1889     Zn  0.62410829  0.54870537  0.73690918     1.49700
Zn1890     Zn  0.66820579  0.59427959  0.77601666     1.49400
Zn1891     Zn  0.66649579  0.52149361  0.76374643     1.49100
Zn1892     Zn  0.70601927  0.58846573  0.73574376     1.49500
O1893       O  0.66571094  0.56324046  0.75345966    -1.80000
O1894       O  0.60353207  0.57993341  0.74390092    -0.70600
O1895       O  0.68252171  0.57880888  0.80333856    -0.70400
O1896       O  0.61736695  0.97738040  0.76246470    -0.70000
O1897       O  0.62219020  0.59675744  0.77630297    -0.70600
O1898       O  0.58742321  0.99891328  0.74549233    -0.70200
O1899       O  0.68043259  0.52868930  0.79324116    -0.70800
O1900       O  0.74172242  0.57486467  0.74329068    -0.70200
O1901       O  0.70520698  0.64550913  0.76910757    -0.71000
O1902       O  0.70729507  0.51738731  0.75147833    -0.70400
O1903       O  0.72680292  0.64078531  0.73879757    -0.70800
O1904       O  0.69411143  0.57676728  0.70603373    -0.70700
O1905       O  0.63504333  0.55032101  0.70593449    -0.70500
C1906       C  0.60267658  0.59433276  0.76087216     0.81300
C1907       C  0.68686942  0.55207031  0.80685204     0.81800
C1908       C  0.58841335  0.97403766  0.75546898     0.80700
C1909       C  0.73774868  0.54449334  0.74771206     0.81100
C1910       C  0.72464314  0.65945904  0.75316831     0.82200
C1911       C  0.66472430  0.56216841  0.69647211     0.81300
Zn1912     Zn  0.69195210  0.49969627  0.92574496     1.49700
Zn1913     Zn  0.76302687  0.49597580  0.93017569     1.49400
Zn1914     Zn  0.72018220  0.97209953  0.88840839     1.49100
Zn1915     Zn  0.75995730  0.55106160  0.90084413     1.49500
O1916       O  0.73327770  0.50380569  0.91156074    -1.80000
O1917       O  0.69972920  0.00057705  0.95689408    -0.70600
O1918       O  0.76356032  0.95199917  0.92199266    -0.70400
O1919       O  0.67071988  0.93237593  0.89352686    -0.70000
O1920       O  0.74808237  0.99529665  0.95976600    -0.70600
O1921       O  0.64812211  0.95204643  0.91775897    -0.70200
O1922       O  0.75112946  0.94834113  0.88822491    -0.70800
O1923       O  0.74406134  0.55394935  0.87210496    -0.70200
O1924       O  0.81388405  0.53466095  0.92762004    -0.71000
O1925       O  0.71672092  0.99732289  0.86211792    -0.70400
O1926       O  0.81274331  0.57058923  0.90332522    -0.70800
O1927       O  0.74681641  0.58148952  0.91661753    -0.70700
O1928       O  0.68833698  0.54398736  0.91893129    -0.70500
C1929       C  0.72316207  0.99869766  0.96783179     0.81300
C1930       C  0.76247529  0.93933195  0.90412081     0.81800
C1931       C  0.64518229  0.92810541  0.90511308     0.80700
C1932       C  0.72579818  0.52996936  0.85899582     0.81100
C1933       C  0.82961565  0.56162536  0.91577938     0.82200
C1934       C  0.71514171  0.57556638  0.91811489     0.81300
Zn1935     Zn  0.54384037  0.75865958  0.92976821     1.49700
Zn1936     Zn  0.96188826  0.71708481  0.93114757     1.49400
Zn1937     Zn  0.99993295  0.75974499  0.89049406     1.49100
Zn1938     Zn  0.00089805  0.68847696  0.90390627     1.49500
O1939       O  0.50204545  0.73143624  0.91345787    -1.80000
O1940       O  0.53326874  0.74970408  0.96071517    -0.70600
O1941       O  0.94116394  0.74853771  0.92726865    -0.70400
O1942       O  0.54583812  0.80836434  0.89006834    -0.70000
O1943       O  0.97411158  0.71829391  0.96088737    -0.70600
O1944       O  0.56431050  0.81038354  0.92255661    -0.70200
O1945       O  0.96270423  0.77382577  0.89662757    -0.70800
O1946       O  0.98724152  0.68139575  0.87440988    -0.70200
O1947       O  0.92593925  0.66740287  0.92441402    -0.71000
O1948       O  0.98636033  0.72978279  0.86345145    -0.70400
O1949       O  0.95988114  0.64385157  0.91655686    -0.70800
O1950       O  0.54987287  0.69330732  0.90530888    -0.70700
O1951       O  0.58038505  0.74559980  0.92127353    -0.70500
C1952       C  0.50362449  0.73265800  0.97031266     0.81300
C1953       C  0.94324689  0.76880954  0.91246584     0.81800
C1954       C  0.56520573  0.82556538  0.90548211     0.80700
C1955       C  0.98161399  0.69846480  0.86040351     0.81100
C1956       C  0.92960585  0.64074714  0.92040258     0.82200
C1957       C  0.57905714  0.71930067  0.91176895     0.81300
Zn1958     Zn  0.97494619  0.64118273  0.74145289     1.49700
Zn1959     Zn  0.90750889  0.62419615  0.76713510     1.49400
Zn1960     Zn  0.90356879  0.56619122  0.73785098     1.49100
Zn1961     Zn  0.94793136  0.58533510  0.77902192     1.49500
O1962       O  0.93403899  0.60391288  0.75608379    -1.80000
O1963       O  0.97819364  0.68919167  0.74751247    -0.70600
O1964       O  0.85464410  0.59073785  0.76530102    -0.70400
O1965       O  0.91769464  0.57997050  0.70817095    -0.70000
O1966       O  0.91984174  0.66775637  0.75132849    -0.79600
O1967       O  0.96642906  0.63354123  0.71046141    -0.70200
O1968       O  0.85290623  0.55409488  0.74075455    -0.70800
O1969       O  0.91671386  0.53062963  0.77967805    -0.70200
O1970       O  0.92424417  0.64293516  0.79564883    -0.71000
O1971       O  0.90295121  0.52170345  0.74609295    -0.70400
O1972       O  0.95225522  0.61406460  0.80524779    -0.70800
O1973       O  0.49717170  0.59499601  0.77329516    -0.70700
O1974       O  0.51922518  0.63778673  0.74914873    -0.70500
C1975       C  0.95124813  0.69363489  0.74871321     0.81300
C1976       C  0.83746780  0.56509328  0.75284425     0.81800
C1977       C  0.94260713  0.60810659  0.69981923     0.80700
C1978       C  0.90461181  0.51018379  0.76392962     0.81100
C1979       C  0.94302659  0.63741125  0.80851368     0.82200
C1980       C  0.52246227  0.61654498  0.76158562     0.81300
C1981       C  0.95594218  0.66004502  0.82649847    -0.09100
C1982       C  0.96809493  0.68004070  0.84108500    -0.10700
C1983       C  0.61292868  0.89413663  0.90430842    -0.09100
C1984       C  0.58954871  0.86329708  0.90385326    -0.10700
C1985       C  0.89782990  0.60692389  0.91912744    -0.09100
C1986       C  0.86736578  0.58371039  0.91730814    -0.10700
C1987       C  0.57820409  0.60754582  0.76238902    -0.09100
C1988       C  0.55477440  0.61491537  0.76204568    -0.10700
C1989       C  0.76934112  0.54230973  0.74950391    -0.09100
C1990       C  0.79972737  0.54948945  0.75150633    -0.10700
C1991       C  0.71316031  0.54002861  0.84090460    -0.09100
C1992       C  0.70087037  0.54772186  0.82623341    -0.10700
C1993       C  0.92184641  0.78533666  0.91369083    -0.09100
C1994       C  0.89877304  0.79273956  0.91589745    -0.10700
C1995       C  0.64242286  0.72701286  0.90540412    -0.09100
C1996       C  0.61208663  0.72033279  0.90765290    -0.10700
C1997       C  0.71828858  0.63676030  0.91585076    -0.09100
C1998       C  0.71099655  0.60621543  0.91771868    -0.10700
C1999       C  0.78104069  0.89010372  0.90475887    -0.09100
C2000       C  0.77384176  0.91346004  0.90253418    -0.10700
C2001       C  0.55523757  0.94194815  0.75945475    -0.09100
C2002       C  0.52480930  0.91822382  0.76146888    -0.10700
C2003       C  0.74590803  0.69738824  0.75132753    -0.09100
C2004       C  0.76884617  0.72790701  0.74876385    -0.10700
C2005       C  0.88580374  0.94244383  0.76301921    -0.09100
C2006       C  0.89308174  0.97291762  0.76557935    -0.10700
C2007       C  0.95497677  0.72830157  0.74818410    -0.09100
C2008       C  0.94767771  0.75160166  0.74951441    -0.10700
C2009       C  0.82361422  0.78470172  0.84042778    -0.09100
C2010       C  0.84234568  0.79382974  0.82514300    -0.10700
C2011       C  0.72438020  0.50469290  0.00856126    -0.09100
C2012       C  0.72238481  0.50158108  0.98997587    -0.10700
C2013       C  0.65520978  0.94647638  0.17171640    -0.09100
C2014       C  0.67623285  0.95695918  0.15740750    -0.10700
C2015       C  0.77719947  0.77533880  0.99174070    -0.09100
C2016       C  0.77848817  0.77417341  0.01032069    -0.10700
C2017       C  0.78545553  0.91740244  0.07856353    -0.09100
C2018       C  0.79108775  0.89294671  0.07779496    -0.10700
C2019       C  0.72042413  0.60645144  0.09800852    -0.09100
C2020       C  0.72586471  0.63655837  0.09891959    -0.10700
C2021       C  0.97020262  0.89066839  0.23288433    -0.09100
C2022       C  0.94011810  0.88465986  0.23510834    -0.10700
C2023       C  0.72572993  0.95478681  0.24870809    -0.09100
C2024       C  0.74987411  0.94886052  0.24702628    -0.10700
C2025       C  0.77954011  0.82267031  0.15835884    -0.09100
C2026       C  0.79137845  0.84259397  0.17298525    -0.10700
C2027       C  0.60399736  0.57431134  0.23500344    -0.09100
C2028       C  0.61036366  0.55018297  0.23505007    -0.10700
C2029       C  0.54544012  0.79568561  0.25092454    -0.09100
C2030       C  0.53918392  0.76548504  0.25268865    -0.10700
C2031       C  0.91880562  0.52727442  0.23266931    -0.09100
C2032       C  0.94305688  0.55761744  0.23376368    -0.10700
C2033       C  0.69801816  0.74710708  0.25338585    -0.09100
C2034       C  0.72824256  0.77114131  0.25471583    -0.10700
C2035       C  0.49941179  0.72733830  0.01099863    -0.09100
C2036       C  0.50277839  0.72974815  0.99244782    -0.10700
C2037       C  0.63119297  0.71425588  0.08021576    -0.09100
C2038       C  0.60129497  0.70896605  0.07941971    -0.10700
C2039       C  0.90874042  0.77180968  0.10031856    -0.09100
C2040       C  0.88441578  0.77774246  0.09945508    -0.10700
C2041       C  0.58208309  0.86871799  0.08154264    -0.09100
C2042       C  0.60660639  0.89859160  0.07964956    -0.10700
C2043       C  0.86253907  0.58875905  0.09742935    -0.09100
C2044       C  0.89277679  0.61324597  0.09720016    -0.10700
C2045       C  0.55026213  0.70657959  0.17448537    -0.09100
C2046       C  0.54006460  0.71726677  0.16014417    -0.10700
C2047       C  0.89005414  0.83641511  0.65550185    -0.09100
C2048       C  0.89124397  0.83793545  0.67410876    -0.10700
C2049       C  0.84066588  0.90174333  0.34200770    -0.09100
C2050       C  0.84126012  0.90162491  0.32338705    -0.10700
C2051       C  0.87371672  0.88816133  0.49344920    -0.09100
C2052       C  0.88624435  0.88034859  0.50791654    -0.10700
C2053       C  0.66962262  0.56117111  0.65579048    -0.09100
C2054       C  0.66582616  0.56000719  0.67433137    -0.10700
C2055       C  0.53832649  0.92063497  0.58496488    -0.09100
C2056       C  0.56872361  0.94432039  0.58598740    -0.10700
C2057       C  0.76155796  0.70048429  0.56744468    -0.09100
C2058       C  0.78526242  0.73116390  0.56811275    -0.10700
C2059       C  0.60871993  0.94012423  0.33961908    -0.09100
C2060       C  0.60774612  0.94118583  0.32098961    -0.10700
C2061       C  0.97309345  0.88920962  0.42034327    -0.09100
C2062       C  0.94268212  0.88207857  0.41834695    -0.10700
C2063       C  0.75193687  0.94783989  0.42806874    -0.09100
C2064       C  0.72829395  0.95440338  0.42546580    -0.10700
C2065       C  0.63513890  0.51428519  0.50636278    -0.09100
C2066       C  0.62669629  0.99467913  0.49152049    -0.10700
C2067       C  0.55330882  0.66719996  0.34211024    -0.09100
C2068       C  0.55114436  0.66220124  0.32363989    -0.10700
C2069       C  0.62002334  0.59000581  0.41284935    -0.09100
C2070       C  0.62697244  0.56657596  0.41102058    -0.10700
C2071       C  0.56281503  0.81055244  0.42867081    -0.09100
C2072       C  0.55538969  0.77971620  0.42804092    -0.10700
C2073       C  0.72736024  0.78443048  0.42649101    -0.09100
C2074       C  0.69680007  0.76090197  0.42828579    -0.10700
C2075       C  0.94086232  0.56834071  0.41706862    -0.09100
C2076       C  0.91760210  0.53788894  0.41924510    -0.10700
C2077       C  0.94147005  0.61192347  0.65906063    -0.09100
C2078       C  0.94309233  0.61132331  0.67767552    -0.10700
C2079       C  0.95101585  0.72733937  0.57139914    -0.09100
C2080       C  0.94466489  0.75116871  0.56883698    -0.10700
C2081       C  0.88724500  0.97314786  0.58172609    -0.09100
C2082       C  0.88052948  0.94275972  0.58359636    -0.10700
C2083       C  0.77967047  0.55714616  0.57048921    -0.09100
C2084       C  0.81023218  0.56384421  0.57005021    -0.10700
C2085       C  0.56566820  0.62852658  0.58558206    -0.09100
C2086       C  0.58928507  0.62197388  0.58337174    -0.10700
C2087       C  0.99374120  0.62463192  0.50721241    -0.09100
C2088       C  0.51330680  0.63313965  0.49224071    -0.10700
loop_ 
_geom_bond_atom_site_label_1 
_geom_bond_atom_site_label_2 
_geom_bond_distance 
_geom_bond_site_symmetry_2 
_ccdc_geom_bond_type 
Zn1           O5   1.938       .  S
Zn1           O6   1.981       .  S
Zn1          O17   2.028       .  S
Zn1        O1054   2.022       .  S
Zn2           O5   1.953       .  S
Zn2           O7   2.033       .  S
Zn2           O9   2.094       .  S
Zn2          O13   2.052       .  S
Zn3           O5   1.907       .  S
Zn3          O11   1.992       .  S
Zn3          O14   1.999       .  S
Zn3        O1052   1.981       .  S
Zn4           O5   1.915       .  S
Zn4          O12   2.045       .  S
Zn4          O15   2.002       .  S
Zn4          O16   2.005       .  S
O6           C18   1.266       .  A
O7           C19   1.274       .  A
O8        Zn1047   1.981   1_455  S
O8           C20   1.271       .  A
O9           C18   1.283       .  A
O10       Zn1045   2.022   1_455  S
O10          C20   1.275       .  A
O11          C19   1.270       .  A
O12          C21   1.276       .  A
O13          C22   1.281       .  A
O14          C21   1.269       .  A
O15          C22   1.274       .  A
O16          C23   1.272       .  A
O17          C23   1.274       .  A
C18         C521   1.448       .  S
C19        C1037   1.432   1_545  S
C20         C519   1.426       .  S
C21         C511   1.438       .  S
C22         C518   1.438       .  S
C23         C513   1.434       .  S
Zn24         O28   1.920       .  S
Zn24         O29   2.000       .  S
Zn24         O33   1.995       .  S
Zn24         O40   2.020       .  S
Zn25         O28   1.905       .  S
Zn25         O30   2.008       .  S
Zn25         O32   2.009       .  S
Zn25       O1080   1.965       .  S
Zn26         O28   1.922       .  S
Zn26         O31   2.056       .  S
Zn26         O34   2.067       .  S
Zn26         O37   1.995       .  S
Zn27         O28   1.939       .  S
Zn27         O35   2.058       .  S
Zn27         O39   2.047       .  S
Zn27       O1082   2.045   1_455  S
O29          C41   1.268       .  A
O30          C42   1.270       .  A
O31          C43   1.282       .  A
O32          C41   1.273       .  A
O33          C43   1.274       .  A
O34          C42   1.279       .  A
O35          C44   1.280       .  A
O36       Zn1069   1.965       .  S
O36          C45   1.269       .  A
O37          C44   1.271       .  A
O38       Zn1071   2.045       .  S
O38          C45   1.277       .  A
O39          C46   1.276       .  A
O40          C46   1.274       .  A
C41         C503   1.428       .  S
C42         C522   1.449       .  S
C43         C508   1.436       .  S
C44         C506   1.438       .  S
C45         C509   1.426       .  S
C46         C501   1.444       .  S
Zn47         O51   1.918       .  S
Zn47         O52   2.043       .  S
Zn47         O56   2.002       .  S
Zn47         O63   2.007       .  S
Zn48         O51   1.911       .  S
Zn48         O53   1.989       .  S
Zn48         O55   2.001       .  S
Zn48        O581   1.980       .  S
Zn49         O51   1.959       .  S
Zn49         O54   2.055       .  S
Zn49         O57   2.032       .  S
Zn49         O60   2.093       .  S
Zn50         O51   1.942       .  S
Zn50         O58   1.983       .  S
Zn50         O62   2.029       .  S
Zn50        O583   2.024       .  S
O52          C64   1.275       .  A
O53          C65   1.269       .  A
O54          C66   1.281       .  A
O55          C64   1.269       .  A
O56          C66   1.273       .  A
O57          C65   1.274       .  A
O58          C67   1.267       .  A
O59        Zn570   1.980   1_545  S
O59          C68   1.270       .  A
O60          C67   1.283       .  A
O61        Zn572   2.024   1_545  S
O61          C68   1.275       .  A
O62          C69   1.274       .  A
O63          C69   1.273       .  A
C64         C493   1.438       .  S
C65        C1539   1.431   1_455  S
C66         C505   1.439       .  S
C67         C500   1.448       .  S
C68         C504   1.426       .  S
C69         C498   1.435       .  S
Zn70         O74   1.906       .  S
Zn70         O75   2.008       .  S
Zn70         O79   2.010       .  S
Zn70        O608   1.965       .  S
Zn71         O74   1.924       .  S
Zn71         O76   2.061       .  S
Zn71         O78   2.068       .  S
Zn71         O82   1.997       .  S
Zn72         O74   1.922       .  S
Zn72         O77   1.997       .  S
Zn72         O80   1.994       .  S
Zn72         O83   2.012       .  S
Zn73         O74   1.942       .  S
Zn73         O81   2.038       .  S
Zn73         O84   2.054       .  S
Zn73        O607   2.043   1_545  S
O75          C87   1.270       .  A
O76          C88   1.282       .  A
O77          C89   1.268       .  A
O78          C87   1.279       .  A
O79          C89   1.273       .  A
O80          C88   1.273       .  A
O81          C90   1.275       .  A
O82          C91   1.271       .  A
O83          C90   1.272       .  A
O84          C91   1.279       .  A
O85        Zn595   2.043       .  S
O85          C92   1.277       .  A
O86        Zn592   1.965       .  S
O86          C92   1.269       .  A
C87         C499   1.449       .  S
C88         C491   1.438       .  S
C89         C520   1.428       .  S
C90         C487   1.439       .  S
C91         C517   1.437       .  S
C92         C490   1.425       .  S
Zn93         O97   1.935       .  S
Zn93         O98   1.977       .  S
Zn93        O102   2.031       .  S
Zn93        O109   2.037       .  S
Zn94         O97   1.952       .  S
Zn94         O99   2.025       .  S
Zn94        O101   2.086       .  S
Zn94        O105   2.051       .  S
Zn95         O97   1.904       .  S
Zn95        O100   1.981       .  S
Zn95        O103   1.990       .  S
Zn95        O106   1.999       .  S
Zn96         O97   1.906       .  S
Zn96        O104   2.031       .  S
Zn96        O107   1.991       .  S
Zn96        O108   2.001       .  S
O98         C110   1.267       .  A
O99         C111   1.273       .  A
O100        C112   1.271       .  A
O101        C110   1.282       .  A
O102        C112   1.277       .  A
O103        C111   1.270       .  A
O104        C113   1.274       .  A
O105        C114   1.281       .  A
O106        C113   1.269       .  A
O107        C114   1.272       .  A
O108        C115   1.272       .  A
O109        C115   1.276       .  A
C110        C485   1.444       .  S
C111       C1032   1.429       .  S
C112        C496   1.428       .  S
C113        C483   1.434       .  S
C114        C497   1.435       .  S
C115        C507   1.436       .  S
Zn116       O120   1.899       .  S
Zn116       O121   2.006       .  S
Zn116       O125   2.014       .  S
Zn116       O132   1.970       .  S
Zn117       O120   1.918       .  S
Zn117       O122   2.056       .  S
Zn117       O124   2.058       .  S
Zn117       O128   1.991       .  S
Zn118       O120   1.911       .  S
Zn118       O123   1.999       .  S
Zn118       O126   1.983       .  S
Zn118       O129   2.005       .  S
Zn119       O120   1.935       .  S
Zn119       O127   2.036       .  S
Zn119       O130   2.057       .  S
Zn119       O131   2.050       .  S
O121        C133   1.270       .  A
O122        C134   1.282       .  A
O123        C135   1.268       .  A
O124        C133   1.279       .  A
O125        C135   1.274       .  A
O126        C134   1.272       .  A
O127        C136   1.275       .  A
O128        C137   1.270       .  A
O129        C136   1.272       .  A
O130        C137   1.279       .  A
O131        C138   1.278       .  A
O132        C138   1.270       .  A
C133        C486   1.446       .  S
C134        C514   1.433       .  S
C135       C1533   1.429       .  S
C136        C481   1.435       .  S
C137        C492   1.437       .  S
C138        C516   1.428       .  S
Zn139      O1187   1.927       .  S
Zn139       O144   2.063       .  S
Zn139       O148   1.996       .  S
Zn139       O155   2.056       .  S
Zn140       O143   1.907       .  S
Zn140       O145   1.974       .  S
Zn140       O147   2.012       .  S
Zn140       O151   2.012       .  S
Zn141       O143   1.940   1_655  S
Zn141       O149   2.032   1_655  S
Zn141      O1190   2.042       .  S
Zn141      O1196   2.031       .  S
Zn142       O143   1.924   1_655  S
Zn142       O153   1.996   1_655  S
Zn142      O1194   2.010       .  S
Zn142      O1198   1.990       .  S
O143      Zn1183   1.927   1_455  S
O144       C1200   1.279       .  A
O145        C157   1.270       .  A
O146      Zn1185   2.042       .  S
O146        C158   1.277       .  A
O147        C156   1.271       .  A
O148        C158   1.270       .  A
O149        C157   1.276       .  A
O150      Zn1186   2.010       .  S
O150        C159   1.272       .  A
O151        C160   1.273       .  A
O152      Zn1185   2.031       .  S
O152        C159   1.274       .  A
O153        C160   1.268       .  A
O154      Zn1186   1.990       .  S
O154        C161   1.273       .  A
O155        C161   1.282       .  A
C156       O1188   1.279   1_455  A
C156        C480   1.449       .  S
C157        C472   1.425       .  S
C158        C478   1.434       .  S
C159       C1513   1.437       .  S
C160        C475   1.427       .  S
C161        C473   1.435       .  S
Zn162       O166   1.905       .  S
Zn162       O167   2.006       .  S
Zn162       O171   1.966       .  S
Zn162       O178   2.008       .  S
Zn163       O166   1.926       .  S
Zn163       O168   2.028       .  S
Zn163       O170   2.011       .  S
Zn163       O174   2.005       .  S
Zn164       O166   1.941       .  S
Zn164       O169   2.039       .  S
Zn164       O172   2.041       .  S
Zn164      O1219   2.050   1_455  S
Zn165       O166   1.927       .  S
Zn165       O176   2.054       .  S
Zn165       O177   2.066       .  S
Zn165      O1217   1.997       .  S
O167        C179   1.272       .  A
O168        C180   1.275       .  A
O169        C181   1.276       .  A
O170        C179   1.270       .  A
O171        C181   1.268       .  A
O172        C180   1.276       .  A
O173      Zn1209   1.997       .  S
O173        C182   1.271       .  A
O174        C183   1.275       .  A
O175      Zn1208   2.050       .  S
O175        C182   1.278       .  A
O176        C183   1.282       .  A
O177        C184   1.279       .  A
O178        C184   1.270       .  A
C179        C467   1.430       .  S
C180        C502   1.444       .  S
C181        C464   1.424       .  S
C182        C466   1.437       .  S
C183        C461   1.438       .  S
C184        C479   1.449       .  S
Zn185       O189   1.911       .  S
Zn185       O190   1.994       .  S
Zn185       O194   1.984       .  S
Zn185       O201   1.989       .  S
Zn186       O189   1.914       .  S
Zn186       O191   1.999       .  S
Zn186       O193   2.033       .  S
Zn186       O197   1.992       .  S
Zn187       O189   1.940       .  S
Zn187       O192   2.027       .  S
Zn187       O195   2.030       .  S
Zn187       O198   1.980       .  S
Zn188       O189   1.957       .  S
Zn188       O196   2.085       .  S
Zn188       O199   2.055       .  S
Zn188       O200   2.028       .  S
O190        C202   1.268       .  A
O191        C203   1.271       .  A
O192        C204   1.275       .  A
O193        C202   1.274       .  A
O194        C204   1.271       .  A
O195        C203   1.274       .  A
O196        C205   1.282       .  A
O197        C206   1.272       .  A
O198        C205   1.267       .  A
O199        C206   1.280       .  A
O200        C207   1.273       .  A
O201        C207   1.269       .  A
C202        C484   1.434       .  S
C203        C456   1.433       .  S
C204        C468   1.428       .  S
C205        C460   1.444       .  S
C206        C987   1.436       .  S
C207        C458   1.430       .  S
Zn208       O212   1.939       .  S
Zn208       O213   2.041       .  S
Zn208       O217   2.030       .  S
Zn208       O224   2.048       .  S
Zn209       O212   1.902       .  S
Zn209       O214   2.006       .  S
Zn209       O216   1.971       .  S
Zn209       O220   2.006       .  S
Zn210       O212   1.920       .  S
Zn210       O215   2.008       .  S
Zn210       O218   2.002       .  S
Zn210       O221   1.990       .  S
Zn211       O212   1.923       .  S
Zn211       O219   2.051       .  S
Zn211       O222   2.057       .  S
Zn211       O223   1.993       .  S
O213        C225   1.277       .  A
O214        C226   1.273       .  A
O215        C227   1.272       .  A
O216        C225   1.269       .  A
O217        C227   1.274       .  A
O218        C226   1.269       .  A
O219        C228   1.281       .  A
O220        C229   1.270       .  A
O221        C228   1.273       .  A
O222        C229   1.278       .  A
O223        C230   1.270       .  A
O224        C230   1.278       .  A
C225        C452   1.426       .  S
C226        C471   1.427       .  S
C227        C450   1.435       .  S
C228        C454   1.434       .  S
C229        C459   1.445       .  S
C230        C474   1.435       .  S
Zn231       O235   1.925   1_545  S
Zn231       O236   2.048       .  S
Zn231       O240   2.060       .  S
Zn231       O247   1.992       .  S
Zn232       O235   1.923   1_545  S
Zn232       O239   1.998       .  S
Zn232       O243   2.023       .  S
Zn232       O759   2.008   1_545  S
Zn233       O757   1.903       .  S
Zn233       O238   2.010       .  S
Zn233       O241   2.009       .  S
Zn233       O244   1.970       .  S
Zn234       O235   1.937   1_545  S
Zn234       O245   2.036       .  S
Zn234       O246   2.044       .  S
Zn234       O764   2.036   1_545  S
O235       Zn755   1.903       .  S
O236        C248   1.281       .  A
O237       Zn754   2.008       .  S
O237        C249   1.269       .  A
O238        C250   1.270       .  A
O239        C248   1.274       .  A
O240        C772   1.278   1_545  A
O241        C249   1.273       .  A
O242       Zn756   2.036       .  S
O242        C251   1.276       .  A
O243        C252   1.274       .  A
O244        C251   1.269       .  A
O245        C252   1.275       .  A
O246        C253   1.278       .  A
O247        C253   1.270       .  A
C248        C477   1.434       .  S
C249        C451   1.430       .  S
C250        O762   1.278       .  A
C250        C448   1.448       .  S
C251        C476   1.424       .  S
C252        C445   1.441       .  S
C253        C453   1.434       .  S
Zn254       O258   1.937       .  S
Zn254       O259   2.037       .  S
Zn254       O270   2.042       .  S
Zn254       O785   2.050       .  S
Zn255       O258   1.919       .  S
Zn255       O260   1.985       .  S
Zn255       O262   2.013       .  S
Zn255       O266   1.996       .  S
Zn256       O258   1.925       .  S
Zn256       O264   2.052       .  S
Zn256       O267   2.062       .  S
Zn256       O783   1.998       .  S
Zn257       O258   1.904       .  S
Zn257       O265   2.009       .  S
Zn257       O268   2.014       .  S
Zn257       O269   1.972       .  S
O259        C271   1.275       .  A
O260        C272   1.273       .  A
O261       Zn778   1.998       .  S
O261        C273   1.271   1_565  A
O262        C271   1.273       .  A
O263       Zn776   2.050   1_545  S
O263        C273   1.278       .  A
O264        C272   1.281       .  A
O265        C274   1.270       .  A
O266        C275   1.268       .  A
O267        C274   1.278       .  A
O268        C275   1.274       .  A
O269        C276   1.270       .  A
O270        C276   1.277       .  A
C271        C494   1.439       .  S
C272       C1499   1.432   1_455  S
C273        C462   1.437       .  S
C274        C447   1.448       .  S
C275        C463   1.428       .  S
C276        C457   1.427       .  S
Zn277       O281   1.936       .  S
Zn277       O282   1.970       .  S
Zn277       O286   2.026       .  S
Zn277       O293   2.035       .  S
Zn278       O281   1.951       .  S
Zn278       O283   2.027       .  S
Zn278       O285   2.085       .  S
Zn278       O289   2.052       .  S
Zn279       O281   1.904       .  S
Zn279       O284   1.983       .  S
Zn279       O287   1.998       .  S
Zn279       O290   1.996       .  S
Zn280       O281   1.908       .  S
Zn280       O288   2.038       .  S
Zn280       O291   1.995       .  S
Zn280       O292   2.001       .  S
O282        C294   1.265       .  A
O283        C295   1.273       .  A
O284        C296   1.271       .  A
O285        C294   1.282       .  A
O286        C296   1.276       .  A
O287        C295   1.270       .  A
O288        C297   1.275       .  A
O289        C298   1.280       .  A
O290        C297   1.269       .  A
O291        C298   1.273       .  A
O292        C299   1.271       .  A
O293        C299   1.275       .  A
C294        C444   1.442       .  S
C295        C442   1.432       .  S
C296        C438   1.428       .  S
C297        C482   1.435       .  S
C298       C1480   1.436       .  S
C299        C439   1.435       .  S
Zn300       O304   1.951       .  S
Zn300       O305   2.050       .  S
Zn300       O309   2.025       .  S
Zn300       O316   2.083       .  S
Zn301       O304   1.908       .  S
Zn301       O306   2.039       .  S
Zn301       O308   1.996       .  S
Zn301       O312   2.005       .  S
Zn302       O304   1.903       .  S
Zn302       O307   1.992       .  S
Zn302       O310   1.994       .  S
Zn302       O313   1.981       .  S
Zn303       O304   1.935       .  S
Zn303       O311   2.031       .  S
Zn303       O314   2.039       .  S
Zn303       O315   1.973       .  S
O305        C317   1.280       .  A
O306        C318   1.275       .  A
O307        C319   1.270       .  A
O308        C317   1.273       .  A
O309        C319   1.273       .  A
O310        C318   1.269       .  A
O311        C320   1.277       .  A
O312        C321   1.272       .  A
O313        C320   1.271       .  A
O314        C321   1.276       .  A
O315        C322   1.266       .  A
O316        C322   1.282       .  A
C317        C429   1.435       .  S
C318        C449   1.435       .  S
C319        C431   1.430       .  S
C320        C428   1.429       .  S
C321        C433   1.437       .  S
C322        C443   1.442       .  S
Zn323       O327   1.918       .  S
Zn323       O328   2.011       .  S
Zn323       O339   2.052       .  S
Zn323       O854   2.011   1_545  S
Zn324       O327   1.955       .  S
Zn324       O329   2.091       .  S
Zn324       O331   2.053       .  S
Zn324       O335   2.031       .  S
Zn325       O327   1.941       .  S
Zn325       O333   1.982       .  S
Zn325       O336   2.026       .  S
Zn325       O852   2.031   1_545  S
Zn326       O327   1.906       .  S
Zn326       O334   1.975       .  S
Zn326       O337   1.987       .  S
Zn326       O338   1.993       .  S
O328        C340   1.275       .  A
O329        C341   1.283       .  A
O330       Zn847   2.031       .  S
O330        C342   1.275       .  A
O331        C340   1.281       .  A
O332       Zn845   2.011       .  S
O332        C342   1.273       .  A
O333        C341   1.267       .  A
O334        C343   1.270       .  A
O335        C344   1.273       .  A
O336        C343   1.276       .  A
O337        C344   1.269       .  A
O338        C345   1.268       .  A
O339        C345   1.276       .  A
C340        C421   1.440       .  S
C341        C426   1.447       .  S
C342        C435   1.436       .  S
C343        C423   1.426       .  S
C344        C437   1.430       .  S
C345        C488   1.439       .  S
Zn346       O350   1.939   1_565  S
Zn346       O362   2.048   1_565  S
Zn346       O873   2.042   1_565  S
Zn346       O877   2.056       .  S
Zn347       O350   1.917   1_565  S
Zn347       O358   2.000   1_565  S
Zn347       O874   1.991       .  S
Zn347       O876   2.016       .  S
Zn348       O872   1.922       .  S
Zn348       O353   1.993       .  S
Zn348       O356   2.061       .  S
Zn348       O359   2.064       .  S
Zn349       O350   1.904       .  S
Zn349       O357   2.010       .  S
Zn349       O360   2.013       .  S
Zn349       O361   1.966       .  S
O350       Zn870   1.922   1_545  S
O351       Zn868   2.042       .  S
O351        C363   1.276       .  A
O352       Zn869   1.991       .  S
O352        C364   1.273       .  A
O353        C365   1.270       .  A
O354       Zn869   2.016       .  S
O354        C363   1.273       .  A
O355       Zn868   2.056       .  S
O355        C365   1.279       .  A
O356        C364   1.282       .  A
O357        C366   1.270       .  A
O358        C367   1.269       .  A
O359        C888   1.279       .  A
O360        C367   1.273       .  A
O361        C368   1.269       .  A
O362        C368   1.278       .  A
C363        C968   1.441       .  S
C364        C434   1.437       .  S
C365        C417   1.437       .  S
C366        O881   1.279   1_545  A
C366        C425   1.449       .  S
C367        C420   1.429       .  S
C368        C432   1.427       .  S
Zn369       O373   1.916       .  S
Zn369       O374   2.045       .  S
Zn369       O378   2.006       .  S
Zn369       O385   2.008       .  S
Zn370      O1417   1.906       .  S
Zn370       O375   1.988       .  S
Zn370       O377   1.992       .  S
Zn370       O381   1.976       .  S
Zn371      O1417   1.954       .  S
Zn371       O379   2.031       .  S
Zn371       O382   2.086       .  S
Zn371      O1420   2.050       .  S
Zn372      O1417   1.940       .  S
Zn372       O380   1.979       .  S
Zn372       O383   2.027       .  S
Zn372      O1428   2.031       .  S
O373      Zn1414   1.906   1_455  S
O373      Zn1415   1.954   1_455  S
O373      Zn1416   1.940       .  S
O374        C386   1.276       .  A
O375        C387   1.269       .  A
O376      Zn1415   2.050   1_455  S
O376        C388   1.280       .  A
O377       C1430   1.268       .  A
O378        C388   1.274       .  A
O379        C387   1.273       .  A
O380        C389   1.267       .  A
O381        C390   1.270       .  A
O382        C389   1.282       .  A
O383        C390   1.276       .  A
O384      Zn1416   2.031       .  S
O384        C391   1.275       .  A
O385        C391   1.273       .  A
C386       O1421   1.268   1_455  A
C386        C470   1.436       .  S
C387        C427   1.431       .  S
C388        C418   1.438       .  S
C389        C416   1.445       .  S
C390        C419   1.426       .  S
C391        C430   1.436       .  S
Zn392       O396   1.940       .  S
Zn392       O397   2.053       .  S
Zn392       O401   2.038       .  S
Zn392      O1452   2.061       .  S
Zn393       O396   1.903       .  S
Zn393       O398   2.013       .  S
Zn393       O400   1.966       .  S
Zn393       O404   2.005       .  S
Zn394       O396   1.916       .  S
Zn394       O399   2.010       .  S
Zn394       O402   1.997       .  S
Zn394       O405   1.985       .  S
Zn395       O396   1.922       .  S
Zn395       O403   2.059       .  S
Zn395       O406   2.062       .  S
Zn395      O1451   1.994       .  S
O397        C409   1.279       .  A
O398        C410   1.273       .  A
O399        C411   1.272       .  A
O400        C409   1.269       .  A
O401        C411   1.275       .  A
O402        C410   1.268       .  A
O403        C412   1.282       .  A
O404        C413   1.270       .  A
O405        C412   1.272       .  A
O406        C413   1.279       .  A
O407      Zn1439   1.994       .  S
O407        C414   1.271   1_655  A
O408      Zn1436   2.061   1_455  S
O408        C414   1.280       .  A
C409        C441   1.428       .  S
C410        C424   1.428       .  S
C411        C512   1.438       .  S
C412        C962   1.435   1_545  S
C413        C415   1.447       .  S
C414        C422   1.439       .  S
C415        C416   1.213       .  T
C417        C418   1.208       .  T
C419        C420   1.201       .  T
C421        C422   1.209       .  T
C423        C424   1.201       .  T
C425        C426   1.214       .  T
C427        C428   1.203       .  T
C429        C430   1.206       .  T
C431        C432   1.202       .  T
C433        C434   1.207       .  T
C435        C436   1.207       .  T
C436       C1342   1.436   1_455  S
C437        C438   1.203       .  T
C439        C440   1.206       .  T
C440        C934   1.435       .  S
C441        C442   1.203       .  T
C443        C444   1.211       .  T
C445        C446   1.209   1_554  T
C446        C885   1.441   1_545  S
C447        C448   1.214       .  T
C449        C450   1.206   1_556  T
C451        C452   1.202       .  T
C453        C454   1.205       .  T
C455       C1316   1.432       .  S
C455        C456   1.205       .  T
C457        C458   1.202       .  T
C459        C460   1.212       .  T
C461        C462   1.208       .  T
C463        C464   1.201       .  T
C465        C728   1.436   1_545  S
C465        C466   1.207       .  T
C467        C468   1.202       .  T
C469       C1203   1.437       .  S
C469        C470   1.207   1_654  T
C471        C472   1.200       .  T
C473        C474   1.206       .  T
C475        C476   1.201       .  T
C477        C478   1.206       .  T
C479        C480   1.215       .  T
C481        C482   1.206       .  T
C483        C484   1.205       .  T
C485        C486   1.213       .  T
C487        C488   1.208       .  T
C489       C1179   1.429       .  S
C489        C490   1.201       .  T
C491        C492   1.208       .  T
C493        C494   1.208       .  T
C495       C1109   1.431       .  S
C495        C496   1.203       .  T
C497        C498   1.206       .  T
C499       C1022   1.215   1_545  T
C500       C1021   1.215       .  T
C501        C502   1.211       .  T
C503        C504   1.201       .  T
C505        C506   1.208       .  T
C507        C508   1.207       .  T
C509        C510   1.201       .  T
C510        C633   1.429   1_545  S
C511        C512   1.208       .  T
C513        C514   1.205       .  T
C515        C541   1.432       .  S
C515        C516   1.203       .  T
C517        C518   1.208       .  T
C519        C520   1.201       .  T
C521       C1566   1.215       .  T
C522       C1565   1.215   1_455  T
Zn523       O527   1.938       .  S
Zn523       O528   1.981       .  S
Zn523      O1576   2.022       .  S
Zn523       O539   2.028       .  S
Zn524       O527   1.953       .  S
Zn524       O529   2.033       .  S
Zn524       O531   2.094       .  S
Zn524       O535   2.052       .  S
Zn525       O527   1.907       .  S
Zn525      O1574   1.981       .  S
Zn525       O533   1.992       .  S
Zn525       O536   1.999       .  S
Zn526       O527   1.915       .  S
Zn526       O534   2.045       .  S
Zn526       O537   2.002       .  S
Zn526       O538   2.005       .  S
O528        C540   1.266       .  A
O529        C541   1.274       .  A
O530      Zn1569   1.981   1_455  S
O530        C542   1.271       .  A
O531        C540   1.283       .  A
O532      Zn1567   2.022   1_455  S
O532        C542   1.275       .  A
O533        C541   1.270       .  A
O534        C543   1.276       .  A
O535        C544   1.281       .  A
O536        C543   1.269       .  A
O537        C544   1.274       .  A
O538        C545   1.272       .  A
O539        C545   1.274       .  A
C540       C1043   1.448       .  S
C542       C1041   1.426       .  S
C543       C1033   1.438       .  S
C544       C1040   1.438       .  S
C545       C1035   1.434       .  S
Zn546       O550   1.920       .  S
Zn546       O551   2.000       .  S
Zn546       O555   1.995       .  S
Zn546       O562   2.020       .  S
Zn547       O550   1.905       .  S
Zn547       O552   2.008       .  S
Zn547       O554   2.009       .  S
Zn547      O1602   1.965       .  S
Zn548       O550   1.922       .  S
Zn548       O553   2.056       .  S
Zn548       O556   2.067       .  S
Zn548       O559   1.995       .  S
Zn549       O550   1.939       .  S
Zn549       O557   2.058       .  S
Zn549      O1604   2.045   1_455  S
Zn549       O561   2.047       .  S
O551        C563   1.268       .  A
O552        C564   1.270       .  A
O553        C565   1.282       .  A
O554        C563   1.273       .  A
O555        C565   1.274       .  A
O556        C564   1.279       .  A
O557        C566   1.280       .  A
O558      Zn1591   1.965       .  S
O558        C567   1.269       .  A
O559        C566   1.271       .  A
O560      Zn1593   2.045       .  S
O560        C567   1.277       .  A
O561        C568   1.276       .  A
O562        C568   1.274       .  A
C563       C1025   1.428       .  S
C564       C1044   1.449       .  S
C565       C1030   1.436       .  S
C566       C1028   1.438       .  S
C567       C1031   1.426       .  S
C568       C1023   1.444       .  S
Zn569       O573   1.918       .  S
Zn569       O574   2.043       .  S
Zn569       O578   2.002       .  S
Zn569       O585   2.007       .  S
Zn570       O573   1.911       .  S
Zn570       O575   1.989       .  S
Zn570       O577   2.001       .  S
Zn571       O573   1.959       .  S
Zn571       O576   2.055       .  S
Zn571       O579   2.032       .  S
Zn571       O582   2.093       .  S
Zn572       O573   1.942       .  S
Zn572       O580   1.983       .  S
Zn572       O584   2.029       .  S
O574        C586   1.275       .  A
O575        C587   1.269       .  A
O576        C588   1.281       .  A
O577        C586   1.269       .  A
O578        C588   1.273       .  A
O579        C587   1.274       .  A
O580        C589   1.267       .  A
O581        C590   1.270       .  A
O582        C589   1.283       .  A
O583        C590   1.275       .  A
O584        C591   1.274       .  A
O585        C591   1.273       .  A
C586       C1015   1.438       .  S
C587       C2061   1.431   1_455  S
C588       C1027   1.439       .  S
C589       C1022   1.447       .  S
C590       C1026   1.426       .  S
C591       C1020   1.435       .  S
Zn592       O596   1.906       .  S
Zn592       O597   2.008       .  S
Zn592       O601   2.010       .  S
Zn593       O596   1.924       .  S
Zn593       O598   2.061       .  S
Zn593       O600   2.068       .  S
Zn593       O604   1.997       .  S
Zn594       O596   1.922       .  S
Zn594       O599   1.997       .  S
Zn594       O602   1.994       .  S
Zn594       O605   2.012       .  S
Zn595       O596   1.942       .  S
Zn595       O603   2.038       .  S
Zn595       O606   2.054       .  S
O597        C609   1.270       .  A
O598        C610   1.282       .  A
O599        C611   1.268       .  A
O600        C609   1.279       .  A
O601        C611   1.273       .  A
O602        C610   1.273       .  A
O603        C612   1.275       .  A
O604        C613   1.271       .  A
O605        C612   1.272       .  A
O606        C613   1.279       .  A
O607        C614   1.277       .  A
O608        C614   1.269   1_545  A
C609       C1021   1.449       .  S
C610       C1013   1.438       .  S
C611       C1042   1.428       .  S
C612       C1009   1.439       .  S
C613       C1039   1.437       .  S
C614       C1012   1.425       .  S
Zn615       O619   1.935       .  S
Zn615       O620   1.977       .  S
Zn615       O624   2.031       .  S
Zn615       O631   2.037       .  S
Zn616       O619   1.952       .  S
Zn616       O621   2.025       .  S
Zn616       O623   2.086       .  S
Zn616       O627   2.051       .  S
Zn617       O619   1.904       .  S
Zn617       O622   1.981       .  S
Zn617       O625   1.990       .  S
Zn617       O628   1.999       .  S
Zn618       O619   1.906       .  S
Zn618       O626   2.031       .  S
Zn618       O629   1.991       .  S
Zn618       O630   2.001       .  S
O620        C632   1.267       .  A
O621        C633   1.273       .  A
O622        C634   1.271       .  A
O623        C632   1.282       .  A
O624        C634   1.277       .  A
O625        C633   1.270       .  A
O626        C635   1.274       .  A
O627        C636   1.281       .  A
O628        C635   1.269       .  A
O629        C636   1.272       .  A
O630        C637   1.272       .  A
O631        C637   1.276       .  A
C632       C1007   1.444       .  S
C634       C1018   1.428       .  S
C635       C1005   1.434       .  S
C636       C1019   1.435       .  S
C637       C1029   1.436       .  S
Zn638       O642   1.899       .  S
Zn638       O643   2.006       .  S
Zn638       O647   2.014       .  S
Zn638       O654   1.970       .  S
Zn639       O642   1.918       .  S
Zn639       O644   2.056       .  S
Zn639       O646   2.058       .  S
Zn639       O650   1.991       .  S
Zn640       O642   1.911       .  S
Zn640       O645   1.999       .  S
Zn640       O648   1.983       .  S
Zn640       O651   2.005       .  S
Zn641       O642   1.935       .  S
Zn641       O649   2.036       .  S
Zn641       O652   2.057       .  S
Zn641       O653   2.050       .  S
O643        C655   1.270       .  A
O644        C656   1.282       .  A
O645        C657   1.268       .  A
O646        C655   1.279       .  A
O647        C657   1.274       .  A
O648        C656   1.272       .  A
O649        C658   1.275       .  A
O650        C659   1.270       .  A
O651        C658   1.272       .  A
O652        C659   1.279       .  A
O653        C660   1.278       .  A
O654        C660   1.270       .  A
C655       C1008   1.446       .  S
C656       C1036   1.433       .  S
C657       C2055   1.429       .  S
C658       C1003   1.435       .  S
C659       C1014   1.437       .  S
C660       C1038   1.428       .  S
Zn661      O1709   1.927       .  S
Zn661       O666   2.063       .  S
Zn661       O670   1.996       .  S
Zn661       O677   2.056       .  S
Zn662       O665   1.907       .  S
Zn662       O667   1.974       .  S
Zn662       O669   2.012       .  S
Zn662       O673   2.012       .  S
Zn663       O665   1.940   1_655  S
Zn663      O1712   2.042       .  S
Zn663       O671   2.032   1_655  S
Zn663      O1718   2.031       .  S
Zn664       O665   1.924   1_655  S
Zn664      O1716   2.010       .  S
Zn664       O675   1.996   1_655  S
Zn664      O1720   1.990       .  S
O665      Zn1705   1.927   1_455  S
O666       C1722   1.279       .  A
O667        C679   1.270       .  A
O668      Zn1707   2.042       .  S
O668        C680   1.277       .  A
O669        C678   1.271       .  A
O670        C680   1.270       .  A
O671        C679   1.276       .  A
O672      Zn1708   2.010       .  S
O672        C681   1.272       .  A
O673        C682   1.273       .  A
O674      Zn1707   2.031       .  S
O674        C681   1.274       .  A
O675        C682   1.268       .  A
O676      Zn1708   1.990       .  S
O676        C683   1.273       .  A
O677        C683   1.282       .  A
C678       O1710   1.279   1_455  A
C678       C1002   1.449       .  S
C679        C994   1.425       .  S
C680       C1000   1.434       .  S
C681       C2035   1.437       .  S
C682        C997   1.427       .  S
C683        C995   1.435       .  S
Zn684       O688   1.905       .  S
Zn684       O689   2.006       .  S
Zn684       O693   1.966       .  S
Zn684       O700   2.008       .  S
Zn685       O688   1.926       .  S
Zn685       O690   2.028       .  S
Zn685       O692   2.011       .  S
Zn685       O696   2.005       .  S
Zn686       O688   1.941       .  S
Zn686       O691   2.039       .  S
Zn686       O694   2.041       .  S
Zn686      O1741   2.050   1_455  S
Zn687       O688   1.927       .  S
Zn687      O1739   1.997       .  S
Zn687       O698   2.054       .  S
Zn687       O699   2.066       .  S
O689        C701   1.272       .  A
O690        C702   1.275       .  A
O691        C703   1.276       .  A
O692        C701   1.270       .  A
O693        C703   1.268       .  A
O694        C702   1.276       .  A
O695      Zn1731   1.997       .  S
O695        C704   1.271       .  A
O696        C705   1.275       .  A
O697      Zn1730   2.050       .  S
O697        C704   1.278       .  A
O698        C705   1.282       .  A
O699        C706   1.279       .  A
O700        C706   1.270       .  A
C701        C989   1.430       .  S
C702       C1024   1.444       .  S
C703        C986   1.424       .  S
C704        C988   1.437       .  S
C705        C983   1.438       .  S
C706       C1001   1.449       .  S
Zn707       O711   1.911       .  S
Zn707       O712   1.994       .  S
Zn707       O716   1.984       .  S
Zn707       O723   1.989       .  S
Zn708       O711   1.914       .  S
Zn708       O713   1.999       .  S
Zn708       O715   2.033       .  S
Zn708       O719   1.992       .  S
Zn709       O711   1.940       .  S
Zn709       O714   2.027       .  S
Zn709       O717   2.030       .  S
Zn709       O720   1.980       .  S
Zn710       O711   1.957       .  S
Zn710       O718   2.085       .  S
Zn710       O721   2.055       .  S
Zn710       O722   2.028       .  S
O712        C724   1.268       .  A
O713        C725   1.271       .  A
O714        C726   1.275       .  A
O715        C724   1.274       .  A
O716        C726   1.271       .  A
O717        C725   1.274       .  A
O718        C727   1.282       .  A
O719        C728   1.272       .  A
O720        C727   1.267       .  A
O721        C728   1.280       .  A
O722        C729   1.273       .  A
O723        C729   1.269       .  A
C724       C1006   1.434       .  S
C725        C978   1.433       .  S
C726        C990   1.428       .  S
C727        C982   1.444       .  S
C729        C980   1.430       .  S
Zn730       O734   1.939       .  S
Zn730       O735   2.041       .  S
Zn730       O739   2.030       .  S
Zn730       O746   2.048       .  S
Zn731       O734   1.902       .  S
Zn731       O736   2.006       .  S
Zn731       O738   1.971       .  S
Zn731       O742   2.006       .  S
Zn732       O734   1.920       .  S
Zn732       O737   2.008       .  S
Zn732       O740   2.002       .  S
Zn732       O743   1.990       .  S
Zn733       O734   1.923       .  S
Zn733       O741   2.051       .  S
Zn733       O744   2.057       .  S
Zn733       O745   1.993       .  S
O735        C747   1.277       .  A
O736        C748   1.273       .  A
O737        C749   1.272       .  A
O738        C747   1.269       .  A
O739        C749   1.274       .  A
O740        C748   1.269       .  A
O741        C750   1.281       .  A
O742        C751   1.270       .  A
O743        C750   1.273       .  A
O744        C751   1.278       .  A
O745        C752   1.270       .  A
O746        C752   1.278       .  A
C747        C974   1.426       .  S
C748        C993   1.427       .  S
C749        C972   1.435       .  S
C750        C976   1.434       .  S
C751        C981   1.445       .  S
C752        C996   1.435       .  S
Zn753       O757   1.925       .  S
Zn753       O758   2.048       .  S
Zn753       O762   2.060       .  S
Zn753       O769   1.992       .  S
Zn754       O757   1.923       .  S
Zn754       O761   1.998       .  S
Zn754       O765   2.023       .  S
Zn755       O760   2.010       .  S
Zn755       O763   2.009       .  S
Zn755       O766   1.970       .  S
Zn756       O757   1.937       .  S
Zn756       O767   2.036       .  S
Zn756       O768   2.044       .  S
O758        C770   1.281       .  A
O759        C771   1.269       .  A
O760        C772   1.270       .  A
O761        C770   1.274       .  A
O763        C771   1.273       .  A
O764        C773   1.276       .  A
O765        C774   1.274       .  A
O766        C773   1.269       .  A
O767        C774   1.275       .  A
O768        C775   1.278       .  A
O769        C775   1.270       .  A
C770        C999   1.434       .  S
C771        C973   1.430       .  S
C772        C970   1.448       .  S
C773        C998   1.424       .  S
C774        C967   1.441       .  S
C775        C975   1.434       .  S
Zn776       O780   1.937       .  S
Zn776       O781   2.037       .  S
Zn776       O792   2.042       .  S
Zn777       O780   1.919       .  S
Zn777       O782   1.985       .  S
Zn777       O784   2.013       .  S
Zn777       O788   1.996       .  S
Zn778       O780   1.925       .  S
Zn778       O786   2.052       .  S
Zn778       O789   2.062       .  S
Zn779       O780   1.904       .  S
Zn779       O787   2.009       .  S
Zn779       O790   2.014       .  S
Zn779       O791   1.972       .  S
O781        C793   1.275       .  A
O782        C794   1.273       .  A
O783        C795   1.271       .  A
O784        C793   1.273       .  A
O785        C795   1.278       .  A
O786        C794   1.281       .  A
O787        C796   1.270       .  A
O788        C797   1.268       .  A
O789        C796   1.278       .  A
O790        C797   1.274       .  A
O791        C798   1.270       .  A
O792        C798   1.277       .  A
C793       C1016   1.439       .  S
C794       C2021   1.432   1_455  S
C795        C984   1.437       .  S
C796        C969   1.448       .  S
C797        C985   1.428       .  S
C798        C979   1.427       .  S
Zn799       O803   1.936       .  S
Zn799       O804   1.970       .  S
Zn799       O808   2.026       .  S
Zn799       O815   2.035       .  S
Zn800       O803   1.951       .  S
Zn800       O805   2.027       .  S
Zn800       O807   2.085       .  S
Zn800       O811   2.052       .  S
Zn801       O803   1.904       .  S
Zn801       O806   1.983       .  S
Zn801       O809   1.998       .  S
Zn801       O812   1.996       .  S
Zn802       O803   1.908       .  S
Zn802       O810   2.038       .  S
Zn802       O813   1.995       .  S
Zn802       O814   2.001       .  S
O804        C816   1.265       .  A
O805        C817   1.273       .  A
O806        C818   1.271       .  A
O807        C816   1.282       .  A
O808        C818   1.276       .  A
O809        C817   1.270       .  A
O810        C819   1.275       .  A
O811        C820   1.280       .  A
O812        C819   1.269       .  A
O813        C820   1.273       .  A
O814        C821   1.271       .  A
O815        C821   1.275       .  A
C816        C966   1.442       .  S
C817        C964   1.432       .  S
C818        C960   1.428       .  S
C819       C1004   1.435       .  S
C820       C2002   1.436       .  S
C821        C961   1.435       .  S
Zn822       O826   1.951       .  S
Zn822       O827   2.050       .  S
Zn822       O831   2.025       .  S
Zn822       O838   2.083       .  S
Zn823       O826   1.908       .  S
Zn823       O828   2.039       .  S
Zn823       O830   1.996       .  S
Zn823       O834   2.005       .  S
Zn824       O826   1.903       .  S
Zn824       O829   1.992       .  S
Zn824       O832   1.994       .  S
Zn824       O835   1.981       .  S
Zn825       O826   1.935       .  S
Zn825       O833   2.031       .  S
Zn825       O836   2.039       .  S
Zn825       O837   1.973       .  S
O827        C839   1.280       .  A
O828        C840   1.275       .  A
O829        C841   1.270       .  A
O830        C839   1.273       .  A
O831        C841   1.273       .  A
O832        C840   1.269       .  A
O833        C842   1.277       .  A
O834        C843   1.272       .  A
O835        C842   1.271       .  A
O836        C843   1.276       .  A
O837        C844   1.266       .  A
O838        C844   1.282       .  A
C839        C951   1.435       .  S
C840        C971   1.435       .  S
C841        C953   1.430       .  S
C842        C950   1.429       .  S
C843        C955   1.437       .  S
C844        C965   1.442       .  S
Zn845       O849   1.918       .  S
Zn845       O850   2.011       .  S
Zn845       O861   2.052       .  S
Zn846       O849   1.955       .  S
Zn846       O851   2.091       .  S
Zn846       O853   2.053       .  S
Zn846       O857   2.031       .  S
Zn847       O849   1.941       .  S
Zn847       O855   1.982       .  S
Zn847       O858   2.026       .  S
Zn848       O849   1.906       .  S
Zn848       O856   1.975       .  S
Zn848       O859   1.987       .  S
Zn848       O860   1.993       .  S
O850        C862   1.275       .  A
O851        C863   1.283       .  A
O852        C864   1.275       .  A
O853        C862   1.281       .  A
O854        C864   1.273       .  A
O855        C863   1.267       .  A
O856        C865   1.270       .  A
O857        C866   1.273       .  A
O858        C865   1.276       .  A
O859        C866   1.269       .  A
O860        C867   1.268       .  A
O861        C867   1.276       .  A
C862        C943   1.440       .  S
C863        C948   1.447       .  S
C864        C957   1.436       .  S
C865        C945   1.426       .  S
C866        C959   1.430       .  S
C867       C1010   1.439       .  S
Zn868       O872   1.939       .  S
Zn868       O884   2.048       .  S
Zn869       O872   1.917       .  S
Zn869       O880   2.000       .  S
Zn870       O875   1.993       .  S
Zn870       O878   2.061       .  S
Zn870       O881   2.064       .  S
Zn871       O872   1.904       .  S
Zn871       O879   2.010       .  S
Zn871       O882   2.013       .  S
Zn871       O883   1.966       .  S
O873        C885   1.276   1_545  A
O874        C886   1.273       .  A
O875        C887   1.270       .  A
O876        C885   1.273       .  A
O877        C887   1.279       .  A
O878        C886   1.282       .  A
O879        C888   1.270       .  A
O880        C889   1.269       .  A
O882        C889   1.273       .  A
O883        C890   1.269       .  A
O884        C890   1.278       .  A
C886        C956   1.437       .  S
C887        C939   1.437       .  S
C888        C947   1.449       .  S
C889        C942   1.429       .  S
C890        C954   1.427       .  S
Zn891       O895   1.916       .  S
Zn891       O896   2.045       .  S
Zn891       O900   2.006       .  S
Zn891       O907   2.008       .  S
Zn892      O1939   1.906       .  S
Zn892       O897   1.988       .  S
Zn892       O899   1.992       .  S
Zn892       O903   1.976       .  S
Zn893      O1939   1.954       .  S
Zn893      O1942   2.050       .  S
Zn893       O901   2.031       .  S
Zn893       O904   2.086       .  S
Zn894      O1939   1.940       .  S
Zn894       O902   1.979       .  S
Zn894       O905   2.027       .  S
Zn894      O1950   2.031       .  S
O895      Zn1936   1.906   1_455  S
O895      Zn1937   1.954   1_455  S
O895      Zn1938   1.940       .  S
O896        C908   1.276       .  A
O897        C909   1.269       .  A
O898      Zn1937   2.050   1_455  S
O898        C910   1.280       .  A
O899       C1952   1.268       .  A
O900        C910   1.274       .  A
O901        C909   1.273       .  A
O902        C911   1.267       .  A
O903        C912   1.270       .  A
O904        C911   1.282       .  A
O905        C912   1.276       .  A
O906      Zn1938   2.031       .  S
O906        C913   1.275       .  A
O907        C913   1.273       .  A
C908       O1943   1.268   1_455  A
C908        C992   1.436       .  S
C909        C949   1.431       .  S
C910        C940   1.438       .  S
C911        C938   1.445       .  S
C912        C941   1.426       .  S
C913        C952   1.436       .  S
Zn914       O918   1.940       .  S
Zn914       O919   2.053       .  S
Zn914       O923   2.038       .  S
Zn914      O1974   2.061       .  S
Zn915       O918   1.903       .  S
Zn915       O920   2.013       .  S
Zn915       O922   1.966       .  S
Zn915       O926   2.005       .  S
Zn916       O918   1.916       .  S
Zn916       O921   2.010       .  S
Zn916       O924   1.997       .  S
Zn916       O927   1.985       .  S
Zn917       O918   1.922       .  S
Zn917       O925   2.059       .  S
Zn917       O928   2.062       .  S
Zn917      O1973   1.994       .  S
O919        C931   1.279       .  A
O920        C932   1.273       .  A
O921        C933   1.272       .  A
O922        C931   1.269       .  A
O923        C933   1.275       .  A
O924        C932   1.268       .  A
O925        C934   1.282       .  A
O926        C935   1.270       .  A
O927        C934   1.272       .  A
O928        C935   1.279       .  A
O929      Zn1961   1.994       .  S
O929        C936   1.271   1_655  A
O930      Zn1958   2.061   1_455  S
O930        C936   1.280       .  A
C931        C963   1.428       .  S
C932        C946   1.428       .  S
C933       C1034   1.438       .  S
C935        C937   1.447       .  S
C936        C944   1.439       .  S
C937        C938   1.213       .  T
C939        C940   1.208       .  T
C941        C942   1.201       .  T
C943        C944   1.209       .  T
C945        C946   1.201       .  T
C947        C948   1.214       .  T
C949        C950   1.203       .  T
C951        C952   1.206       .  T
C953        C954   1.202       .  T
C955        C956   1.207       .  T
C957        C958   1.207       .  T
C958       C1864   1.436   1_455  S
C959        C960   1.203       .  T
C961        C962   1.206       .  T
C963        C964   1.203       .  T
C965        C966   1.211       .  T
C967        C968   1.209   1_554  T
C969        C970   1.214       .  T
C971        C972   1.206   1_556  T
C973        C974   1.202       .  T
C975        C976   1.205       .  T
C977       C1838   1.432       .  S
C977        C978   1.205       .  T
C979        C980   1.202       .  T
C981        C982   1.212       .  T
C983        C984   1.208       .  T
C985        C986   1.201       .  T
C987        C988   1.207       .  T
C989        C990   1.202       .  T
C991       C1725   1.437       .  S
C991        C992   1.207   1_654  T
C993        C994   1.200       .  T
C995        C996   1.206       .  T
C997        C998   1.201       .  T
C999       C1000   1.206       .  T
C1001      C1002   1.215       .  T
C1003      C1004   1.206       .  T
C1005      C1006   1.205       .  T
C1007      C1008   1.213       .  T
C1009      C1010   1.208       .  T
C1011      C1701   1.429       .  S
C1011      C1012   1.201       .  T
C1013      C1014   1.208       .  T
C1015      C1016   1.208       .  T
C1017      C1631   1.431       .  S
C1017      C1018   1.203       .  T
C1019      C1020   1.206       .  T
C1023      C1024   1.211       .  T
C1025      C1026   1.201       .  T
C1027      C1028   1.208       .  T
C1029      C1030   1.207       .  T
C1031      C1032   1.201       .  T
C1033      C1034   1.208       .  T
C1035      C1036   1.205       .  T
C1037      C1038   1.203       .  T
C1039      C1040   1.208       .  T
C1041      C1042   1.201       .  T
C1043      C2088   1.215       .  T
C1044      C2087   1.215   1_455  T
Zn1045     O1049   1.938       .  S
Zn1045     O1050   1.981       .  S
Zn1045     O1061   2.028       .  S
Zn1046     O1049   1.953       .  S
Zn1046     O1051   2.033       .  S
Zn1046     O1053   2.094       .  S
Zn1046     O1057   2.052       .  S
Zn1047     O1049   1.907       .  S
Zn1047     O1055   1.992       .  S
Zn1047     O1058   1.999       .  S
Zn1048     O1049   1.915       .  S
Zn1048     O1056   2.045       .  S
Zn1048     O1059   2.002       .  S
Zn1048     O1060   2.005       .  S
O1050      C1062   1.266       .  A
O1051      C1063   1.274       .  A
O1052      C1064   1.271       .  A
O1053      C1062   1.283       .  A
O1054      C1064   1.275       .  A
O1055      C1063   1.270       .  A
O1056      C1065   1.276       .  A
O1057      C1066   1.281       .  A
O1058      C1065   1.269       .  A
O1059      C1066   1.274       .  A
O1060      C1067   1.272       .  A
O1061      C1067   1.274       .  A
C1062      C1565   1.448       .  S
C1063      C2081   1.432   1_545  S
C1064      C1563   1.426       .  S
C1065      C1555   1.438       .  S
C1066      C1562   1.438       .  S
C1067      C1557   1.434       .  S
Zn1068     O1072   1.920       .  S
Zn1068     O1073   2.000       .  S
Zn1068     O1077   1.995       .  S
Zn1068     O1084   2.020       .  S
Zn1069     O1072   1.905       .  S
Zn1069     O1074   2.008       .  S
Zn1069     O1076   2.009       .  S
Zn1070     O1072   1.922       .  S
Zn1070     O1075   2.056       .  S
Zn1070     O1078   2.067       .  S
Zn1070     O1081   1.995       .  S
Zn1071     O1072   1.939       .  S
Zn1071     O1079   2.058       .  S
Zn1071     O1083   2.047       .  S
O1073      C1085   1.268       .  A
O1074      C1086   1.270       .  A
O1075      C1087   1.282       .  A
O1076      C1085   1.273       .  A
O1077      C1087   1.274       .  A
O1078      C1086   1.279       .  A
O1079      C1088   1.280       .  A
O1080      C1089   1.269   1_455  A
O1081      C1088   1.271       .  A
O1082      C1089   1.277       .  A
O1083      C1090   1.276       .  A
O1084      C1090   1.274       .  A
C1085      C1547   1.428       .  S
C1086      C1566   1.449       .  S
C1087      C1552   1.436       .  S
C1088      C1550   1.438       .  S
C1089      C1553   1.426       .  S
C1090      C1545   1.444       .  S
Zn1091     O1095   1.918       .  S
Zn1091     O1096   2.043       .  S
Zn1091     O1100   2.002       .  S
Zn1091     O1107   2.007       .  S
Zn1092     O1095   1.911       .  S
Zn1092     O1097   1.989       .  S
Zn1092     O1099   2.001       .  S
Zn1092     O1625   1.980       .  S
Zn1093     O1095   1.959       .  S
Zn1093     O1098   2.055       .  S
Zn1093     O1101   2.032       .  S
Zn1093     O1104   2.093       .  S
Zn1094     O1095   1.942       .  S
Zn1094     O1102   1.983       .  S
Zn1094     O1627   2.024       .  S
Zn1094     O1106   2.029       .  S
O1096      C1108   1.275       .  A
O1097      C1109   1.269       .  A
O1098      C1110   1.281       .  A
O1099      C1108   1.269       .  A
O1100      C1110   1.273       .  A
O1101      C1109   1.274       .  A
O1102      C1111   1.267       .  A
O1103     Zn1614   1.980   1_545  S
O1103      C1112   1.270       .  A
O1104      C1111   1.283       .  A
O1105     Zn1616   2.024   1_545  S
O1105      C1112   1.275       .  A
O1106      C1113   1.274       .  A
O1107      C1113   1.273       .  A
C1108      C1537   1.438       .  S
C1110      C1549   1.439       .  S
C1111      C1544   1.448       .  S
C1112      C1548   1.426       .  S
C1113      C1542   1.435       .  S
Zn1114     O1118   1.906       .  S
Zn1114     O1119   2.008       .  S
Zn1114     O1123   2.010       .  S
Zn1114     O1652   1.965       .  S
Zn1115     O1118   1.924       .  S
Zn1115     O1120   2.061       .  S
Zn1115     O1122   2.068       .  S
Zn1115     O1126   1.997       .  S
Zn1116     O1118   1.922       .  S
Zn1116     O1121   1.997       .  S
Zn1116     O1124   1.994       .  S
Zn1116     O1127   2.012       .  S
Zn1117     O1118   1.942       .  S
Zn1117     O1125   2.038       .  S
Zn1117     O1128   2.054       .  S
Zn1117     O1651   2.043   1_545  S
O1119      C1131   1.270       .  A
O1120      C1132   1.282       .  A
O1121      C1133   1.268       .  A
O1122      C1131   1.279       .  A
O1123      C1133   1.273       .  A
O1124      C1132   1.273       .  A
O1125      C1134   1.275       .  A
O1126      C1135   1.271       .  A
O1127      C1134   1.272       .  A
O1128      C1135   1.279       .  A
O1129     Zn1639   2.043       .  S
O1129      C1136   1.277       .  A
O1130     Zn1636   1.965       .  S
O1130      C1136   1.269       .  A
C1131      C1543   1.449       .  S
C1132      C1535   1.438       .  S
C1133      C1564   1.428       .  S
C1134      C1531   1.439       .  S
C1135      C1561   1.437       .  S
C1136      C1534   1.425       .  S
Zn1137     O1141   1.935       .  S
Zn1137     O1142   1.977       .  S
Zn1137     O1146   2.031       .  S
Zn1137     O1153   2.037       .  S
Zn1138     O1141   1.952       .  S
Zn1138     O1143   2.025       .  S
Zn1138     O1145   2.086       .  S
Zn1138     O1149   2.051       .  S
Zn1139     O1141   1.904       .  S
Zn1139     O1144   1.981       .  S
Zn1139     O1147   1.990       .  S
Zn1139     O1150   1.999       .  S
Zn1140     O1141   1.906       .  S
Zn1140     O1148   2.031       .  S
Zn1140     O1151   1.991       .  S
Zn1140     O1152   2.001       .  S
O1142      C1154   1.267       .  A
O1143      C1155   1.273       .  A
O1144      C1156   1.271       .  A
O1145      C1154   1.282       .  A
O1146      C1156   1.277       .  A
O1147      C1155   1.270       .  A
O1148      C1157   1.274       .  A
O1149      C1158   1.281       .  A
O1150      C1157   1.269       .  A
O1151      C1158   1.272       .  A
O1152      C1159   1.272       .  A
O1153      C1159   1.276       .  A
C1154      C1529   1.444       .  S
C1155      C2076   1.429       .  S
C1156      C1540   1.428       .  S
C1157      C1527   1.434       .  S
C1158      C1541   1.435       .  S
C1159      C1551   1.436       .  S
Zn1160     O1164   1.899       .  S
Zn1160     O1165   2.006       .  S
Zn1160     O1169   2.014       .  S
Zn1160     O1176   1.970       .  S
Zn1161     O1164   1.918       .  S
Zn1161     O1166   2.056       .  S
Zn1161     O1168   2.058       .  S
Zn1161     O1172   1.991       .  S
Zn1162     O1164   1.911       .  S
Zn1162     O1167   1.999       .  S
Zn1162     O1170   1.983       .  S
Zn1162     O1173   2.005       .  S
Zn1163     O1164   1.935       .  S
Zn1163     O1171   2.036       .  S
Zn1163     O1174   2.057       .  S
Zn1163     O1175   2.050       .  S
O1165      C1177   1.270       .  A
O1166      C1178   1.282       .  A
O1167      C1179   1.268   1_655  A
O1168      C1177   1.279       .  A
O1169      C1179   1.274   1_655  A
O1170      C1178   1.272       .  A
O1171      C1180   1.275       .  A
O1172      C1181   1.270       .  A
O1173      C1180   1.272       .  A
O1174      C1181   1.279       .  A
O1175      C1182   1.278       .  A
O1176      C1182   1.270       .  A
C1177      C1530   1.446       .  S
C1178      C1558   1.433       .  S
C1180      C1525   1.435       .  S
C1181      C1536   1.437       .  S
C1182      C1560   1.428       .  S
Zn1183     O1188   2.063       .  S
Zn1183     O1192   1.996       .  S
Zn1183     O1199   2.056       .  S
Zn1184     O1187   1.907       .  S
Zn1184     O1189   1.974       .  S
Zn1184     O1191   2.012       .  S
Zn1184     O1195   2.012       .  S
Zn1185     O1187   1.940       .  S
Zn1185     O1193   2.032       .  S
Zn1186     O1187   1.924       .  S
Zn1186     O1197   1.996       .  S
O1189      C1201   1.270       .  A
O1190      C1202   1.277       .  A
O1191      C1200   1.271       .  A
O1192      C1202   1.270       .  A
O1193      C1201   1.276       .  A
O1194      C1203   1.272       .  A
O1195      C1204   1.273       .  A
O1196      C1203   1.274       .  A
O1197      C1204   1.268       .  A
O1198      C1205   1.273       .  A
O1199      C1205   1.282       .  A
C1200      C1524   1.449       .  S
C1201      C1516   1.425       .  S
C1202      C1522   1.434       .  S
C1204      C1519   1.427       .  S
C1205      C1517   1.435       .  S
Zn1206     O1210   1.905       .  S
Zn1206     O1211   2.006       .  S
Zn1206     O1215   1.966       .  S
Zn1206     O1222   2.008       .  S
Zn1207     O1210   1.926       .  S
Zn1207     O1212   2.028       .  S
Zn1207     O1214   2.011       .  S
Zn1207     O1218   2.005       .  S
Zn1208     O1210   1.941       .  S
Zn1208     O1213   2.039       .  S
Zn1208     O1216   2.041       .  S
Zn1209     O1210   1.927       .  S
Zn1209     O1220   2.054       .  S
Zn1209     O1221   2.066       .  S
O1211      C1223   1.272       .  A
O1212      C1224   1.275       .  A
O1213      C1225   1.276       .  A
O1214      C1223   1.270       .  A
O1215      C1225   1.268       .  A
O1216      C1224   1.276       .  A
O1217      C1226   1.271   1_455  A
O1218      C1227   1.275       .  A
O1219      C1226   1.278       .  A
O1220      C1227   1.282       .  A
O1221      C1228   1.279       .  A
O1222      C1228   1.270       .  A
C1223      C1511   1.430       .  S
C1224      C1546   1.444       .  S
C1225      C1508   1.424       .  S
C1226      C1510   1.437       .  S
C1227      C1505   1.438       .  S
C1228      C1523   1.449       .  S
Zn1229     O1233   1.911       .  S
Zn1229     O1234   1.994       .  S
Zn1229     O1238   1.984       .  S
Zn1229     O1245   1.989       .  S
Zn1230     O1233   1.914       .  S
Zn1230     O1235   1.999       .  S
Zn1230     O1237   2.033       .  S
Zn1230     O1241   1.992       .  S
Zn1231     O1233   1.940       .  S
Zn1231     O1236   2.027       .  S
Zn1231     O1239   2.030       .  S
Zn1231     O1242   1.980       .  S
Zn1232     O1233   1.957       .  S
Zn1232     O1240   2.085       .  S
Zn1232     O1243   2.055       .  S
Zn1232     O1244   2.028       .  S
O1234      C1246   1.268       .  A
O1235      C1247   1.271       .  A
O1236      C1248   1.275       .  A
O1237      C1246   1.274       .  A
O1238      C1248   1.271       .  A
O1239      C1247   1.274       .  A
O1240      C1249   1.282       .  A
O1241      C1250   1.272       .  A
O1242      C1249   1.267       .  A
O1243      C1250   1.280       .  A
O1244      C1251   1.273       .  A
O1245      C1251   1.269       .  A
C1246      C1528   1.434       .  S
C1247      C1500   1.433       .  S
C1248      C1512   1.428       .  S
C1249      C1504   1.444       .  S
C1250      C2031   1.436       .  S
C1251      C1502   1.430       .  S
Zn1252     O1256   1.939       .  S
Zn1252     O1257   2.041       .  S
Zn1252     O1261   2.030       .  S
Zn1252     O1268   2.048       .  S
Zn1253     O1256   1.902       .  S
Zn1253     O1258   2.006       .  S
Zn1253     O1260   1.971       .  S
Zn1253     O1264   2.006       .  S
Zn1254     O1256   1.920       .  S
Zn1254     O1259   2.008       .  S
Zn1254     O1262   2.002       .  S
Zn1254     O1265   1.990       .  S
Zn1255     O1256   1.923       .  S
Zn1255     O1263   2.051       .  S
Zn1255     O1266   2.057       .  S
Zn1255     O1267   1.993       .  S
O1257      C1269   1.277       .  A
O1258      C1270   1.273       .  A
O1259      C1271   1.272       .  A
O1260      C1269   1.269       .  A
O1261      C1271   1.274       .  A
O1262      C1270   1.269       .  A
O1263      C1272   1.281       .  A
O1264      C1273   1.270       .  A
O1265      C1272   1.273       .  A
O1266      C1273   1.278       .  A
O1267      C1274   1.270       .  A
O1268      C1274   1.278       .  A
C1269      C1496   1.426       .  S
C1270      C1515   1.427       .  S
C1271      C1494   1.435       .  S
C1272      C1498   1.434       .  S
C1273      C1503   1.445       .  S
C1274      C1518   1.435       .  S
Zn1275     O1279   1.925   1_545  S
Zn1275     O1280   2.048       .  S
Zn1275     O1284   2.060       .  S
Zn1275     O1291   1.992       .  S
Zn1276     O1279   1.923   1_545  S
Zn1276     O1803   2.008   1_545  S
Zn1276     O1283   1.998       .  S
Zn1276     O1287   2.023       .  S
Zn1277     O1801   1.903       .  S
Zn1277     O1282   2.010       .  S
Zn1277     O1285   2.009       .  S
Zn1277     O1288   1.970       .  S
Zn1278     O1279   1.937   1_545  S
Zn1278     O1808   2.036   1_545  S
Zn1278     O1289   2.036       .  S
Zn1278     O1290   2.044       .  S
O1279     Zn1799   1.903       .  S
O1280      C1292   1.281       .  A
O1281     Zn1798   2.008       .  S
O1281      C1293   1.269       .  A
O1282      C1294   1.270       .  A
O1283      C1292   1.274       .  A
O1284      C1816   1.278   1_545  A
O1285      C1293   1.273       .  A
O1286     Zn1800   2.036       .  S
O1286      C1295   1.276       .  A
O1287      C1296   1.274       .  A
O1288      C1295   1.269       .  A
O1289      C1296   1.275       .  A
O1290      C1297   1.278       .  A
O1291      C1297   1.270       .  A
C1292      C1521   1.434       .  S
C1293      C1495   1.430       .  S
C1294      O1806   1.278       .  A
C1294      C1492   1.448       .  S
C1295      C1520   1.424       .  S
C1296      C1489   1.441       .  S
C1297      C1497   1.434       .  S
Zn1298     O1302   1.937       .  S
Zn1298     O1303   2.037       .  S
Zn1298     O1829   2.050       .  S
Zn1298     O1314   2.042       .  S
Zn1299     O1302   1.919       .  S
Zn1299     O1304   1.985       .  S
Zn1299     O1306   2.013       .  S
Zn1299     O1310   1.996       .  S
Zn1300     O1302   1.925       .  S
Zn1300     O1827   1.998       .  S
Zn1300     O1308   2.052       .  S
Zn1300     O1311   2.062       .  S
Zn1301     O1302   1.904       .  S
Zn1301     O1309   2.009       .  S
Zn1301     O1312   2.014       .  S
Zn1301     O1313   1.972       .  S
O1303      C1315   1.275       .  A
O1304      C1316   1.273       .  A
O1305     Zn1822   1.998       .  S
O1305      C1317   1.271   1_565  A
O1306      C1315   1.273       .  A
O1307     Zn1820   2.050   1_545  S
O1307      C1317   1.278       .  A
O1308      C1316   1.281       .  A
O1309      C1318   1.270       .  A
O1310      C1319   1.268       .  A
O1311      C1318   1.278       .  A
O1312      C1319   1.274       .  A
O1313      C1320   1.270       .  A
O1314      C1320   1.277       .  A
C1315      C1538   1.439       .  S
C1317      C1506   1.437       .  S
C1318      C1491   1.448       .  S
C1319      C1507   1.428       .  S
C1320      C1501   1.427       .  S
Zn1321     O1325   1.936       .  S
Zn1321     O1326   1.970       .  S
Zn1321     O1330   2.026       .  S
Zn1321     O1337   2.035       .  S
Zn1322     O1325   1.951       .  S
Zn1322     O1327   2.027       .  S
Zn1322     O1329   2.085       .  S
Zn1322     O1333   2.052       .  S
Zn1323     O1325   1.904       .  S
Zn1323     O1328   1.983       .  S
Zn1323     O1331   1.998       .  S
Zn1323     O1334   1.996       .  S
Zn1324     O1325   1.908       .  S
Zn1324     O1332   2.038       .  S
Zn1324     O1335   1.995       .  S
Zn1324     O1336   2.001       .  S
O1326      C1338   1.265       .  A
O1327      C1339   1.273       .  A
O1328      C1340   1.271       .  A
O1329      C1338   1.282       .  A
O1330      C1340   1.276       .  A
O1331      C1339   1.270       .  A
O1332      C1341   1.275       .  A
O1333      C1342   1.280       .  A
O1334      C1341   1.269       .  A
O1335      C1342   1.273       .  A
O1336      C1343   1.271       .  A
O1337      C1343   1.275       .  A
C1338      C1488   1.442       .  S
C1339      C1486   1.432       .  S
C1340      C1482   1.428       .  S
C1341      C1526   1.435       .  S
C1343      C1483   1.435       .  S
Zn1344     O1348   1.951       .  S
Zn1344     O1349   2.050       .  S
Zn1344     O1353   2.025       .  S
Zn1344     O1360   2.083       .  S
Zn1345     O1348   1.908       .  S
Zn1345     O1350   2.039       .  S
Zn1345     O1352   1.996       .  S
Zn1345     O1356   2.005       .  S
Zn1346     O1348   1.903       .  S
Zn1346     O1351   1.992       .  S
Zn1346     O1354   1.994       .  S
Zn1346     O1357   1.981       .  S
Zn1347     O1348   1.935       .  S
Zn1347     O1355   2.031       .  S
Zn1347     O1358   2.039       .  S
Zn1347     O1359   1.973       .  S
O1349      C1361   1.280       .  A
O1350      C1362   1.275       .  A
O1351      C1363   1.270       .  A
O1352      C1361   1.273       .  A
O1353      C1363   1.273       .  A
O1354      C1362   1.269       .  A
O1355      C1364   1.277       .  A
O1356      C1365   1.272       .  A
O1357      C1364   1.271       .  A
O1358      C1365   1.276       .  A
O1359      C1366   1.266       .  A
O1360      C1366   1.282       .  A
C1361      C1473   1.435       .  S
C1362      C1493   1.435       .  S
C1363      C1475   1.430       .  S
C1364      C1472   1.429       .  S
C1365      C1477   1.437       .  S
C1366      C1487   1.442       .  S
Zn1367     O1371   1.918       .  S
Zn1367     O1372   2.011       .  S
Zn1367     O1898   2.011   1_545  S
Zn1367     O1383   2.052       .  S
Zn1368     O1371   1.955       .  S
Zn1368     O1373   2.091       .  S
Zn1368     O1375   2.053       .  S
Zn1368     O1379   2.031       .  S
Zn1369     O1371   1.941       .  S
Zn1369     O1896   2.031   1_545  S
Zn1369     O1377   1.982       .  S
Zn1369     O1380   2.026       .  S
Zn1370     O1371   1.906       .  S
Zn1370     O1378   1.975       .  S
Zn1370     O1381   1.987       .  S
Zn1370     O1382   1.993       .  S
O1372      C1384   1.275       .  A
O1373      C1385   1.283       .  A
O1374     Zn1891   2.031       .  S
O1374      C1386   1.275       .  A
O1375      C1384   1.281       .  A
O1376     Zn1889   2.011       .  S
O1376      C1386   1.273       .  A
O1377      C1385   1.267       .  A
O1378      C1387   1.270       .  A
O1379      C1388   1.273       .  A
O1380      C1387   1.276       .  A
O1381      C1388   1.269       .  A
O1382      C1389   1.268       .  A
O1383      C1389   1.276       .  A
C1384      C1465   1.440       .  S
C1385      C1470   1.447       .  S
C1386      C1479   1.436       .  S
C1387      C1467   1.426       .  S
C1388      C1481   1.430       .  S
C1389      C1532   1.439       .  S
Zn1390     O1394   1.939   1_565  S
Zn1390     O1917   2.042   1_565  S
Zn1390     O1921   2.056       .  S
Zn1390     O1406   2.048   1_565  S
Zn1391     O1394   1.917   1_565  S
Zn1391     O1918   1.991       .  S
Zn1391     O1920   2.016       .  S
Zn1391     O1402   2.000   1_565  S
Zn1392     O1916   1.922       .  S
Zn1392     O1397   1.993       .  S
Zn1392     O1400   2.061       .  S
Zn1392     O1403   2.064       .  S
Zn1393     O1394   1.904       .  S
Zn1393     O1401   2.010       .  S
Zn1393     O1404   2.013       .  S
Zn1393     O1405   1.966       .  S
O1394     Zn1914   1.922   1_545  S
O1395     Zn1912   2.042       .  S
O1395      C1407   1.276       .  A
O1396     Zn1913   1.991       .  S
O1396      C1408   1.273       .  A
O1397      C1409   1.270       .  A
O1398     Zn1913   2.016       .  S
O1398      C1407   1.273       .  A
O1399     Zn1912   2.056       .  S
O1399      C1409   1.279       .  A
O1400      C1408   1.282       .  A
O1401      C1410   1.270       .  A
O1402      C1411   1.269       .  A
O1403      C1932   1.279       .  A
O1404      C1411   1.273       .  A
O1405      C1412   1.269       .  A
O1406      C1412   1.278       .  A
C1407      C2012   1.441       .  S
C1408      C1478   1.437       .  S
C1409      C1461   1.437       .  S
C1410      O1925   1.279   1_545  A
C1410      C1469   1.449       .  S
C1411      C1464   1.429       .  S
C1412      C1476   1.427       .  S
Zn1413     O1417   1.916       .  S
Zn1413     O1418   2.045       .  S
Zn1413     O1422   2.006       .  S
Zn1413     O1429   2.008       .  S
Zn1414     O1419   1.988       .  S
Zn1414     O1421   1.992       .  S
Zn1414     O1425   1.976       .  S
Zn1415     O1423   2.031       .  S
Zn1415     O1426   2.086       .  S
Zn1416     O1424   1.979   1_455  S
Zn1416     O1427   2.027   1_455  S
O1418      C1430   1.276       .  A
O1419      C1431   1.269       .  A
O1420      C1432   1.280       .  A
O1422      C1432   1.274       .  A
O1423      C1431   1.273       .  A
O1424      C1433   1.267       .  A
O1425      C1434   1.270       .  A
O1426      C1433   1.282       .  A
O1427      C1434   1.276       .  A
O1428      C1435   1.275       .  A
O1429      C1435   1.273       .  A
C1430      C1514   1.436       .  S
C1431      C1471   1.431       .  S
C1432      C1462   1.438       .  S
C1433      C1460   1.445       .  S
C1434      C1463   1.426       .  S
C1435      C1474   1.436       .  S
Zn1436     O1440   1.940       .  S
Zn1436     O1441   2.053       .  S
Zn1436     O1445   2.038       .  S
Zn1437     O1440   1.903       .  S
Zn1437     O1442   2.013       .  S
Zn1437     O1444   1.966       .  S
Zn1437     O1448   2.005       .  S
Zn1438     O1440   1.916       .  S
Zn1438     O1443   2.010       .  S
Zn1438     O1446   1.997       .  S
Zn1438     O1449   1.985       .  S
Zn1439     O1440   1.922       .  S
Zn1439     O1447   2.059       .  S
Zn1439     O1450   2.062       .  S
O1441      C1453   1.279       .  A
O1442      C1454   1.273       .  A
O1443      C1455   1.272       .  A
O1444      C1453   1.269       .  A
O1445      C1455   1.275       .  A
O1446      C1454   1.268       .  A
O1447      C1456   1.282       .  A
O1448      C1457   1.270       .  A
O1449      C1456   1.272       .  A
O1450      C1457   1.279       .  A
O1451      C1458   1.271       .  A
O1452      C1458   1.280       .  A
C1453      C1485   1.428       .  S
C1454      C1468   1.428       .  S
C1455      C1556   1.438       .  S
C1456      C2006   1.435   1_545  S
C1457      C1459   1.447       .  S
C1458      C1466   1.439       .  S
C1459      C1460   1.213       .  T
C1461      C1462   1.208       .  T
C1463      C1464   1.201       .  T
C1465      C1466   1.209       .  T
C1467      C1468   1.201       .  T
C1469      C1470   1.214       .  T
C1471      C1472   1.203       .  T
C1473      C1474   1.206       .  T
C1475      C1476   1.202       .  T
C1477      C1478   1.207       .  T
C1479      C1480   1.207       .  T
C1481      C1482   1.203       .  T
C1483      C1484   1.206       .  T
C1484      C1978   1.435       .  S
C1485      C1486   1.203       .  T
C1487      C1488   1.211       .  T
C1489      C1490   1.209   1_554  T
C1490      C1929   1.441   1_545  S
C1491      C1492   1.214       .  T
C1493      C1494   1.206   1_556  T
C1495      C1496   1.202       .  T
C1497      C1498   1.205       .  T
C1499      C1500   1.205       .  T
C1501      C1502   1.202       .  T
C1503      C1504   1.212       .  T
C1505      C1506   1.208       .  T
C1507      C1508   1.201       .  T
C1509      C1772   1.436   1_545  S
C1509      C1510   1.207       .  T
C1511      C1512   1.202       .  T
C1513      C1514   1.207   1_554  T
C1515      C1516   1.200       .  T
C1517      C1518   1.206       .  T
C1519      C1520   1.201       .  T
C1521      C1522   1.206       .  T
C1523      C1524   1.215       .  T
C1525      C1526   1.206       .  T
C1527      C1528   1.205       .  T
C1529      C1530   1.213       .  T
C1531      C1532   1.208       .  T
C1533      C1534   1.201       .  T
C1535      C1536   1.208       .  T
C1537      C1538   1.208       .  T
C1539      C1540   1.203       .  T
C1541      C1542   1.206       .  T
C1543      C2066   1.215   1_545  T
C1544      C2065   1.215       .  T
C1545      C1546   1.211       .  T
C1547      C1548   1.201       .  T
C1549      C1550   1.208       .  T
C1551      C1552   1.207       .  T
C1553      C1554   1.201       .  T
C1554      C1677   1.429   1_545  S
C1555      C1556   1.208       .  T
C1557      C1558   1.205       .  T
C1559      C1585   1.432       .  S
C1559      C1560   1.203       .  T
C1561      C1562   1.208       .  T
C1563      C1564   1.201       .  T
Zn1567     O1571   1.938       .  S
Zn1567     O1572   1.981       .  S
Zn1567     O1583   2.028       .  S
Zn1568     O1571   1.953       .  S
Zn1568     O1573   2.033       .  S
Zn1568     O1575   2.094       .  S
Zn1568     O1579   2.052       .  S
Zn1569     O1571   1.907       .  S
Zn1569     O1577   1.992       .  S
Zn1569     O1580   1.999       .  S
Zn1570     O1571   1.915       .  S
Zn1570     O1578   2.045       .  S
Zn1570     O1581   2.002       .  S
Zn1570     O1582   2.005       .  S
O1572      C1584   1.266       .  A
O1573      C1585   1.274       .  A
O1574      C1586   1.271       .  A
O1575      C1584   1.283       .  A
O1576      C1586   1.275       .  A
O1577      C1585   1.270       .  A
O1578      C1587   1.276       .  A
O1579      C1588   1.281       .  A
O1580      C1587   1.269       .  A
O1581      C1588   1.274       .  A
O1582      C1589   1.272       .  A
O1583      C1589   1.274       .  A
C1584      C2087   1.448       .  S
C1586      C2085   1.426       .  S
C1587      C2077   1.438       .  S
C1588      C2084   1.438       .  S
C1589      C2079   1.434       .  S
Zn1590     O1594   1.920       .  S
Zn1590     O1595   2.000       .  S
Zn1590     O1599   1.995       .  S
Zn1590     O1606   2.020       .  S
Zn1591     O1594   1.905       .  S
Zn1591     O1596   2.008       .  S
Zn1591     O1598   2.009       .  S
Zn1592     O1594   1.922       .  S
Zn1592     O1597   2.056       .  S
Zn1592     O1600   2.067       .  S
Zn1592     O1603   1.995       .  S
Zn1593     O1594   1.939       .  S
Zn1593     O1601   2.058       .  S
Zn1593     O1605   2.047       .  S
O1595      C1607   1.268       .  A
O1596      C1608   1.270       .  A
O1597      C1609   1.282       .  A
O1598      C1607   1.273       .  A
O1599      C1609   1.274       .  A
O1600      C1608   1.279       .  A
O1601      C1610   1.280       .  A
O1602      C1611   1.269   1_455  A
O1603      C1610   1.271       .  A
O1604      C1611   1.277       .  A
O1605      C1612   1.276       .  A
O1606      C1612   1.274       .  A
C1607      C2069   1.428       .  S
C1608      C2088   1.449       .  S
C1609      C2074   1.436       .  S
C1610      C2072   1.438       .  S
C1611      C2075   1.426       .  S
C1612      C2067   1.444       .  S
Zn1613     O1617   1.918       .  S
Zn1613     O1618   2.043       .  S
Zn1613     O1622   2.002       .  S
Zn1613     O1629   2.007       .  S
Zn1614     O1617   1.911       .  S
Zn1614     O1619   1.989       .  S
Zn1614     O1621   2.001       .  S
Zn1615     O1617   1.959       .  S
Zn1615     O1620   2.055       .  S
Zn1615     O1623   2.032       .  S
Zn1615     O1626   2.093       .  S
Zn1616     O1617   1.942       .  S
Zn1616     O1624   1.983       .  S
Zn1616     O1628   2.029       .  S
O1618      C1630   1.275       .  A
O1619      C1631   1.269       .  A
O1620      C1632   1.281       .  A
O1621      C1630   1.269       .  A
O1622      C1632   1.273       .  A
O1623      C1631   1.274       .  A
O1624      C1633   1.267       .  A
O1625      C1634   1.270       .  A
O1626      C1633   1.283       .  A
O1627      C1634   1.275       .  A
O1628      C1635   1.274       .  A
O1629      C1635   1.273       .  A
C1630      C2059   1.438       .  S
C1632      C2071   1.439       .  S
C1633      C2066   1.448       .  S
C1634      C2070   1.426       .  S
C1635      C2064   1.435       .  S
Zn1636     O1640   1.906       .  S
Zn1636     O1641   2.008       .  S
Zn1636     O1645   2.010       .  S
Zn1637     O1640   1.924       .  S
Zn1637     O1642   2.061       .  S
Zn1637     O1644   2.068       .  S
Zn1637     O1648   1.997       .  S
Zn1638     O1640   1.922       .  S
Zn1638     O1643   1.997       .  S
Zn1638     O1646   1.994       .  S
Zn1638     O1649   2.012       .  S
Zn1639     O1640   1.942       .  S
Zn1639     O1647   2.038       .  S
Zn1639     O1650   2.054       .  S
O1641      C1653   1.270       .  A
O1642      C1654   1.282       .  A
O1643      C1655   1.268       .  A
O1644      C1653   1.279       .  A
O1645      C1655   1.273       .  A
O1646      C1654   1.273       .  A
O1647      C1656   1.275       .  A
O1648      C1657   1.271       .  A
O1649      C1656   1.272       .  A
O1650      C1657   1.279       .  A
O1651      C1658   1.277       .  A
O1652      C1658   1.269   1_545  A
C1653      C2065   1.449       .  S
C1654      C2057   1.438       .  S
C1655      C2086   1.428       .  S
C1656      C2053   1.439       .  S
C1657      C2083   1.437       .  S
C1658      C2056   1.425       .  S
Zn1659     O1663   1.935       .  S
Zn1659     O1664   1.977       .  S
Zn1659     O1668   2.031       .  S
Zn1659     O1675   2.037       .  S
Zn1660     O1663   1.952       .  S
Zn1660     O1665   2.025       .  S
Zn1660     O1667   2.086       .  S
Zn1660     O1671   2.051       .  S
Zn1661     O1663   1.904       .  S
Zn1661     O1666   1.981       .  S
Zn1661     O1669   1.990       .  S
Zn1661     O1672   1.999       .  S
Zn1662     O1663   1.906       .  S
Zn1662     O1670   2.031       .  S
Zn1662     O1673   1.991       .  S
Zn1662     O1674   2.001       .  S
O1664      C1676   1.267       .  A
O1665      C1677   1.273       .  A
O1666      C1678   1.271       .  A
O1667      C1676   1.282       .  A
O1668      C1678   1.277       .  A
O1669      C1677   1.270       .  A
O1670      C1679   1.274       .  A
O1671      C1680   1.281       .  A
O1672      C1679   1.269       .  A
O1673      C1680   1.272       .  A
O1674      C1681   1.272       .  A
O1675      C1681   1.276       .  A
C1676      C2051   1.444       .  S
C1678      C2062   1.428       .  S
C1679      C2049   1.434       .  S
C1680      C2063   1.435       .  S
C1681      C2073   1.436       .  S
Zn1682     O1686   1.899       .  S
Zn1682     O1687   2.006       .  S
Zn1682     O1691   2.014       .  S
Zn1682     O1698   1.970       .  S
Zn1683     O1686   1.918       .  S
Zn1683     O1688   2.056       .  S
Zn1683     O1690   2.058       .  S
Zn1683     O1694   1.991       .  S
Zn1684     O1686   1.911       .  S
Zn1684     O1689   1.999       .  S
Zn1684     O1692   1.983       .  S
Zn1684     O1695   2.005       .  S
Zn1685     O1686   1.935       .  S
Zn1685     O1693   2.036       .  S
Zn1685     O1696   2.057       .  S
Zn1685     O1697   2.050       .  S
O1687      C1699   1.270       .  A
O1688      C1700   1.282       .  A
O1689      C1701   1.268   1_655  A
O1690      C1699   1.279       .  A
O1691      C1701   1.274   1_655  A
O1692      C1700   1.272       .  A
O1693      C1702   1.275       .  A
O1694      C1703   1.270       .  A
O1695      C1702   1.272       .  A
O1696      C1703   1.279       .  A
O1697      C1704   1.278       .  A
O1698      C1704   1.270       .  A
C1699      C2052   1.446       .  S
C1700      C2080   1.433       .  S
C1702      C2047   1.435       .  S
C1703      C2058   1.437       .  S
C1704      C2082   1.428       .  S
Zn1705     O1710   2.063       .  S
Zn1705     O1714   1.996       .  S
Zn1705     O1721   2.056       .  S
Zn1706     O1709   1.907       .  S
Zn1706     O1711   1.974       .  S
Zn1706     O1713   2.012       .  S
Zn1706     O1717   2.012       .  S
Zn1707     O1709   1.940       .  S
Zn1707     O1715   2.032       .  S
Zn1708     O1709   1.924       .  S
Zn1708     O1719   1.996       .  S
O1711      C1723   1.270       .  A
O1712      C1724   1.277       .  A
O1713      C1722   1.271       .  A
O1714      C1724   1.270       .  A
O1715      C1723   1.276       .  A
O1716      C1725   1.272       .  A
O1717      C1726   1.273       .  A
O1718      C1725   1.274       .  A
O1719      C1726   1.268       .  A
O1720      C1727   1.273       .  A
O1721      C1727   1.282       .  A
C1722      C2046   1.449       .  S
C1723      C2038   1.425       .  S
C1724      C2044   1.434       .  S
C1726      C2041   1.427       .  S
C1727      C2039   1.435       .  S
Zn1728     O1732   1.905       .  S
Zn1728     O1733   2.006       .  S
Zn1728     O1737   1.966       .  S
Zn1728     O1744   2.008       .  S
Zn1729     O1732   1.926       .  S
Zn1729     O1734   2.028       .  S
Zn1729     O1736   2.011       .  S
Zn1729     O1740   2.005       .  S
Zn1730     O1732   1.941       .  S
Zn1730     O1735   2.039       .  S
Zn1730     O1738   2.041       .  S
Zn1731     O1732   1.927       .  S
Zn1731     O1742   2.054       .  S
Zn1731     O1743   2.066       .  S
O1733      C1745   1.272       .  A
O1734      C1746   1.275       .  A
O1735      C1747   1.276       .  A
O1736      C1745   1.270       .  A
O1737      C1747   1.268       .  A
O1738      C1746   1.276       .  A
O1739      C1748   1.271   1_455  A
O1740      C1749   1.275       .  A
O1741      C1748   1.278       .  A
O1742      C1749   1.282       .  A
O1743      C1750   1.279       .  A
O1744      C1750   1.270       .  A
C1745      C2033   1.430       .  S
C1746      C2068   1.444       .  S
C1747      C2030   1.424       .  S
C1748      C2032   1.437       .  S
C1749      C2027   1.438       .  S
C1750      C2045   1.449       .  S
Zn1751     O1755   1.911       .  S
Zn1751     O1756   1.994       .  S
Zn1751     O1760   1.984       .  S
Zn1751     O1767   1.989       .  S
Zn1752     O1755   1.914       .  S
Zn1752     O1757   1.999       .  S
Zn1752     O1759   2.033       .  S
Zn1752     O1763   1.992       .  S
Zn1753     O1755   1.940       .  S
Zn1753     O1758   2.027       .  S
Zn1753     O1761   2.030       .  S
Zn1753     O1764   1.980       .  S
Zn1754     O1755   1.957       .  S
Zn1754     O1762   2.085       .  S
Zn1754     O1765   2.055       .  S
Zn1754     O1766   2.028       .  S
O1756      C1768   1.268       .  A
O1757      C1769   1.271       .  A
O1758      C1770   1.275       .  A
O1759      C1768   1.274       .  A
O1760      C1770   1.271       .  A
O1761      C1769   1.274       .  A
O1762      C1771   1.282       .  A
O1763      C1772   1.272       .  A
O1764      C1771   1.267       .  A
O1765      C1772   1.280       .  A
O1766      C1773   1.273       .  A
O1767      C1773   1.269       .  A
C1768      C2050   1.434       .  S
C1769      C2022   1.433       .  S
C1770      C2034   1.428       .  S
C1771      C2026   1.444       .  S
C1773      C2024   1.430       .  S
Zn1774     O1778   1.939       .  S
Zn1774     O1779   2.041       .  S
Zn1774     O1783   2.030       .  S
Zn1774     O1790   2.048       .  S
Zn1775     O1778   1.902       .  S
Zn1775     O1780   2.006       .  S
Zn1775     O1782   1.971       .  S
Zn1775     O1786   2.006       .  S
Zn1776     O1778   1.920       .  S
Zn1776     O1781   2.008       .  S
Zn1776     O1784   2.002       .  S
Zn1776     O1787   1.990       .  S
Zn1777     O1778   1.923       .  S
Zn1777     O1785   2.051       .  S
Zn1777     O1788   2.057       .  S
Zn1777     O1789   1.993       .  S
O1779      C1791   1.277       .  A
O1780      C1792   1.273       .  A
O1781      C1793   1.272       .  A
O1782      C1791   1.269       .  A
O1783      C1793   1.274       .  A
O1784      C1792   1.269       .  A
O1785      C1794   1.281       .  A
O1786      C1795   1.270       .  A
O1787      C1794   1.273       .  A
O1788      C1795   1.278       .  A
O1789      C1796   1.270       .  A
O1790      C1796   1.278       .  A
C1791      C2018   1.426       .  S
C1792      C2037   1.427       .  S
C1793      C2016   1.435       .  S
C1794      C2020   1.434       .  S
C1795      C2025   1.445       .  S
C1796      C2040   1.435       .  S
Zn1797     O1801   1.925       .  S
Zn1797     O1802   2.048       .  S
Zn1797     O1806   2.060       .  S
Zn1797     O1813   1.992       .  S
Zn1798     O1801   1.923       .  S
Zn1798     O1805   1.998       .  S
Zn1798     O1809   2.023       .  S
Zn1799     O1804   2.010       .  S
Zn1799     O1807   2.009       .  S
Zn1799     O1810   1.970       .  S
Zn1800     O1801   1.937       .  S
Zn1800     O1811   2.036       .  S
Zn1800     O1812   2.044       .  S
O1802      C1814   1.281       .  A
O1803      C1815   1.269       .  A
O1804      C1816   1.270       .  A
O1805      C1814   1.274       .  A
O1807      C1815   1.273       .  A
O1808      C1817   1.276       .  A
O1809      C1818   1.274       .  A
O1810      C1817   1.269       .  A
O1811      C1818   1.275       .  A
O1812      C1819   1.278       .  A
O1813      C1819   1.270       .  A
C1814      C2043   1.434       .  S
C1815      C2017   1.430       .  S
C1816      C2014   1.448       .  S
C1817      C2042   1.424       .  S
C1818      C2011   1.441       .  S
C1819      C2019   1.434       .  S
Zn1820     O1824   1.937       .  S
Zn1820     O1825   2.037       .  S
Zn1820     O1836   2.042       .  S
Zn1821     O1824   1.919       .  S
Zn1821     O1826   1.985       .  S
Zn1821     O1828   2.013       .  S
Zn1821     O1832   1.996       .  S
Zn1822     O1824   1.925       .  S
Zn1822     O1830   2.052       .  S
Zn1822     O1833   2.062       .  S
Zn1823     O1824   1.904       .  S
Zn1823     O1831   2.009       .  S
Zn1823     O1834   2.014       .  S
Zn1823     O1835   1.972       .  S
O1825      C1837   1.275       .  A
O1826      C1838   1.273       .  A
O1827      C1839   1.271       .  A
O1828      C1837   1.273       .  A
O1829      C1839   1.278       .  A
O1830      C1838   1.281       .  A
O1831      C1840   1.270       .  A
O1832      C1841   1.268       .  A
O1833      C1840   1.278       .  A
O1834      C1841   1.274       .  A
O1835      C1842   1.270       .  A
O1836      C1842   1.277       .  A
C1837      C2060   1.439       .  S
C1839      C2028   1.437       .  S
C1840      C2013   1.448       .  S
C1841      C2029   1.428       .  S
C1842      C2023   1.427       .  S
Zn1843     O1847   1.936       .  S
Zn1843     O1848   1.970       .  S
Zn1843     O1852   2.026       .  S
Zn1843     O1859   2.035       .  S
Zn1844     O1847   1.951       .  S
Zn1844     O1849   2.027       .  S
Zn1844     O1851   2.085       .  S
Zn1844     O1855   2.052       .  S
Zn1845     O1847   1.904       .  S
Zn1845     O1850   1.983       .  S
Zn1845     O1853   1.998       .  S
Zn1845     O1856   1.996       .  S
Zn1846     O1847   1.908       .  S
Zn1846     O1854   2.038       .  S
Zn1846     O1857   1.995       .  S
Zn1846     O1858   2.001       .  S
O1848      C1860   1.265       .  A
O1849      C1861   1.273       .  A
O1850      C1862   1.271       .  A
O1851      C1860   1.282       .  A
O1852      C1862   1.276       .  A
O1853      C1861   1.270       .  A
O1854      C1863   1.275       .  A
O1855      C1864   1.280       .  A
O1856      C1863   1.269       .  A
O1857      C1864   1.273       .  A
O1858      C1865   1.271       .  A
O1859      C1865   1.275       .  A
C1860      C2010   1.442       .  S
C1861      C2008   1.432       .  S
C1862      C2004   1.428       .  S
C1863      C2048   1.435       .  S
C1865      C2005   1.435       .  S
Zn1866     O1870   1.951       .  S
Zn1866     O1871   2.050       .  S
Zn1866     O1875   2.025       .  S
Zn1866     O1882   2.083       .  S
Zn1867     O1870   1.908       .  S
Zn1867     O1872   2.039       .  S
Zn1867     O1874   1.996       .  S
Zn1867     O1878   2.005       .  S
Zn1868     O1870   1.903       .  S
Zn1868     O1873   1.992       .  S
Zn1868     O1876   1.994       .  S
Zn1868     O1879   1.981       .  S
Zn1869     O1870   1.935       .  S
Zn1869     O1877   2.031       .  S
Zn1869     O1880   2.039       .  S
Zn1869     O1881   1.973       .  S
O1871      C1883   1.280       .  A
O1872      C1884   1.275       .  A
O1873      C1885   1.270       .  A
O1874      C1883   1.273       .  A
O1875      C1885   1.273       .  A
O1876      C1884   1.269       .  A
O1877      C1886   1.277       .  A
O1878      C1887   1.272       .  A
O1879      C1886   1.271       .  A
O1880      C1887   1.276       .  A
O1881      C1888   1.266       .  A
O1882      C1888   1.282       .  A
C1883      C1995   1.435       .  S
C1884      C2015   1.435       .  S
C1885      C1997   1.430       .  S
C1886      C1994   1.429       .  S
C1887      C1999   1.437       .  S
C1888      C2009   1.442       .  S
Zn1889     O1893   1.918       .  S
Zn1889     O1894   2.011       .  S
Zn1889     O1905   2.052       .  S
Zn1890     O1893   1.955       .  S
Zn1890     O1895   2.091       .  S
Zn1890     O1897   2.053       .  S
Zn1890     O1901   2.031       .  S
Zn1891     O1893   1.941       .  S
Zn1891     O1899   1.982       .  S
Zn1891     O1902   2.026       .  S
Zn1892     O1893   1.906       .  S
Zn1892     O1900   1.975       .  S
Zn1892     O1903   1.987       .  S
Zn1892     O1904   1.993       .  S
O1894      C1906   1.275       .  A
O1895      C1907   1.283       .  A
O1896      C1908   1.275       .  A
O1897      C1906   1.281       .  A
O1898      C1908   1.273       .  A
O1899      C1907   1.267       .  A
O1900      C1909   1.270       .  A
O1901      C1910   1.273       .  A
O1902      C1909   1.276       .  A
O1903      C1910   1.269       .  A
O1904      C1911   1.268       .  A
O1905      C1911   1.276       .  A
C1906      C1987   1.440       .  S
C1907      C1992   1.447       .  S
C1908      C2001   1.436       .  S
C1909      C1989   1.426       .  S
C1910      C2003   1.430       .  S
C1911      C2054   1.439       .  S
Zn1912     O1916   1.939       .  S
Zn1912     O1928   2.048       .  S
Zn1913     O1916   1.917       .  S
Zn1913     O1924   2.000       .  S
Zn1914     O1919   1.993       .  S
Zn1914     O1922   2.061       .  S
Zn1914     O1925   2.064       .  S
Zn1915     O1916   1.904       .  S
Zn1915     O1923   2.010       .  S
Zn1915     O1926   2.013       .  S
Zn1915     O1927   1.966       .  S
O1917      C1929   1.276   1_545  A
O1918      C1930   1.273       .  A
O1919      C1931   1.270       .  A
O1920      C1929   1.273       .  A
O1921      C1931   1.279       .  A
O1922      C1930   1.282       .  A
O1923      C1932   1.270       .  A
O1924      C1933   1.269       .  A
O1926      C1933   1.273       .  A
O1927      C1934   1.269       .  A
O1928      C1934   1.278       .  A
C1930      C2000   1.437       .  S
C1931      C1983   1.437       .  S
C1932      C1991   1.449       .  S
C1933      C1986   1.429       .  S
C1934      C1998   1.427       .  S
Zn1935     O1939   1.916       .  S
Zn1935     O1940   2.045       .  S
Zn1935     O1944   2.006       .  S
Zn1935     O1951   2.008       .  S
Zn1936     O1941   1.988       .  S
Zn1936     O1943   1.992       .  S
Zn1936     O1947   1.976       .  S
Zn1937     O1945   2.031       .  S
Zn1937     O1948   2.086       .  S
Zn1938     O1946   1.979   1_455  S
Zn1938     O1949   2.027   1_455  S
O1940      C1952   1.276       .  A
O1941      C1953   1.269       .  A
O1942      C1954   1.280       .  A
O1944      C1954   1.274       .  A
O1945      C1953   1.273       .  A
O1946      C1955   1.267       .  A
O1947      C1956   1.270       .  A
O1948      C1955   1.282       .  A
O1949      C1956   1.276       .  A
O1950      C1957   1.275       .  A
O1951      C1957   1.273       .  A
C1952      C2036   1.436       .  S
C1953      C1993   1.431       .  S
C1954      C1984   1.438       .  S
C1955      C1982   1.445       .  S
C1956      C1985   1.426       .  S
C1957      C1996   1.436       .  S
Zn1958     O1962   1.940       .  S
Zn1958     O1963   2.053       .  S
Zn1958     O1967   2.038       .  S
Zn1959     O1962   1.903       .  S
Zn1959     O1964   2.013       .  S
Zn1959     O1966   1.966       .  S
Zn1959     O1970   2.005       .  S
Zn1960     O1962   1.916       .  S
Zn1960     O1965   2.010       .  S
Zn1960     O1968   1.997       .  S
Zn1960     O1971   1.985       .  S
Zn1961     O1962   1.922       .  S
Zn1961     O1969   2.059       .  S
Zn1961     O1972   2.062       .  S
O1963      C1975   1.279       .  A
O1964      C1976   1.273       .  A
O1965      C1977   1.272       .  A
O1966      C1975   1.269       .  A
O1967      C1977   1.275       .  A
O1968      C1976   1.268       .  A
O1969      C1978   1.282       .  A
O1970      C1979   1.270       .  A
O1971      C1978   1.272       .  A
O1972      C1979   1.279       .  A
O1973      C1980   1.271       .  A
O1974      C1980   1.280       .  A
C1975      C2007   1.428       .  S
C1976      C1990   1.428       .  S
C1977      C2078   1.438       .  S
C1979      C1981   1.447       .  S
C1980      C1988   1.439       .  S
C1981      C1982   1.213       .  T
C1983      C1984   1.208       .  T
C1985      C1986   1.201       .  T
C1987      C1988   1.209       .  T
C1989      C1990   1.201       .  T
C1991      C1992   1.214       .  T
C1993      C1994   1.203       .  T
C1995      C1996   1.206       .  T
C1997      C1998   1.202       .  T
C1999      C2000   1.207       .  T
C2001      C2002   1.207       .  T
C2003      C2004   1.203       .  T
C2005      C2006   1.206       .  T
C2007      C2008   1.203       .  T
C2009      C2010   1.211       .  T
C2011      C2012   1.209   1_554  T
C2013      C2014   1.214       .  T
C2015      C2016   1.206   1_556  T
C2017      C2018   1.202       .  T
C2019      C2020   1.205       .  T
C2021      C2022   1.205       .  T
C2023      C2024   1.202       .  T
C2025      C2026   1.212       .  T
C2027      C2028   1.208       .  T
C2029      C2030   1.201       .  T
C2031      C2032   1.207       .  T
C2033      C2034   1.202       .  T
C2035      C2036   1.207   1_554  T
C2037      C2038   1.200       .  T
C2039      C2040   1.206       .  T
C2041      C2042   1.201       .  T
C2043      C2044   1.206       .  T
C2045      C2046   1.215       .  T
C2047      C2048   1.206       .  T
C2049      C2050   1.205       .  T
C2051      C2052   1.213       .  T
C2053      C2054   1.208       .  T
C2055      C2056   1.201       .  T
C2057      C2058   1.208       .  T
C2059      C2060   1.208       .  T
C2061      C2062   1.203       .  T
C2063      C2064   1.206       .  T
C2067      C2068   1.211       .  T
C2069      C2070   1.201       .  T
C2071      C2072   1.208       .  T
C2073      C2074   1.207       .  T
C2075      C2076   1.201       .  T
C2077      C2078   1.208       .  T
C2079      C2080   1.205       .  T
C2081      C2082   1.203       .  T
C2083      C2084   1.208       .  T
C2085      C2086   1.201       .  T
