geometry optimzed in LAMMPS
_audit_creation_date              2020-12-01 
_audit_creation_method            'lammps2cif' 
_symmetry_space_group_name_H-M    'P1' 
_symmetry_Int_Tables_number       1 
_symmetry_cell_setting            triclinic 
loop_ 
_symmetry_equiv_pos_as_xyz 
  x,y,z 
_cell_length_a                    35.92318551 
_cell_length_b                    35.9225858499034 
_cell_length_c                    75.566016927823 
_cell_angle_alpha                 90.03892839933211 
_cell_angle_beta                  89.95566579057477 
_cell_angle_gamma                 120.2936831549683 
loop_ 
_atom_site_label 
_atom_site_type_symbol 
_atom_site_fract_x 
_atom_site_fract_y 
_atom_site_fract_z 
_atom_site_charge 
O1          O  0.95449207  0.33240912  0.50101366    -0.79500
O2          O  0.75497772  0.26886104  0.50058568    -0.64200
O3          O  0.86531076  0.27936163  0.50866461    -1.10800
C4          C  0.84988450  0.23752926  0.44780371     1.07400
O5          O  0.73217640  0.20657869  0.48694095    -0.77400
O6          O  0.78037449  0.17278510  0.47660573    -0.65000
Ni7        Ni  0.91264739  0.33185231  0.51743650     1.34900
C8          C  0.80777929  0.17057389  0.48643041     0.86100
O9          O  0.80654115  0.29042708  0.52955292    -0.78000
O10         O  0.87684808  0.33628574  0.53527497    -0.88200
C11         C  0.72481251  0.23443597  0.49377617     0.85700
O12         O  0.90498366  0.37073790  0.50259723    -0.66400
O13         O  0.81078179  0.22842498  0.44872445    -0.85700
C14         C  0.87012225  0.36965837  0.49858104     0.86500
C15         C  0.83698796  0.31889042  0.53916030     1.08100
H16         H  0.82701180  0.29039739  0.47426615     0.39900
O17         O  0.81912190  0.26479296  0.48116149    -1.08400
O18         O  0.84243092  0.20350589  0.49176026    -0.65000
Ni19       Ni  0.87092441  0.26381563  0.48499626     1.26300
O20         O  0.83326464  0.33589895  0.49950636    -0.65300
O21         O  0.87557503  0.24925693  0.46094330    -0.77600
C22         C  0.95748752  0.30135514  0.49445928     0.85900
O23         O  0.92443451  0.26636019  0.48979324    -0.64700
Ni24       Ni  0.77323928  0.21898821  0.46837039     1.27400
Ni25       Ni  0.81095138  0.27624328  0.50524185     1.26100
H26         H  0.86100613  0.25654239  0.51667797     0.40400
O27         O  0.99491478  0.29283869  0.31686783    -0.79500
O28         O  0.93148030  0.09341480  0.31729551    -0.64200
O29         O  0.94210071  0.20374676  0.30905753    -1.10800
C30         C  0.89888501  0.18811747  0.36974350     1.07400
O31         O  0.86887683  0.07059041  0.33067330    -0.77400
O32         O  0.83477147  0.11860950  0.34075838    -0.65000
Ni33       Ni  0.99475415  0.25117616  0.30046127     1.34900
C34         C  0.83277984  0.14599071  0.33083936     0.86100
O35         O  0.95377089  0.14515005  0.28833318    -0.78000
O36         O  0.99957761  0.21552087  0.28267236    -0.88200
C37         C  0.89688836  0.06323692  0.32399934     0.85700
O38         O  0.03337941  0.24346632  0.31544045    -0.66400
O39         O  0.88977494  0.14900672  0.36885510    -0.85700
C40         C  0.03220470  0.20860253  0.31953505     0.86500
C41         C  0.98235009  0.17567710  0.27878465     1.08100
H42         H  0.95235797  0.16537256  0.34358536     0.39900
O43         O  0.92691490  0.15747860  0.33657842    -1.08400
O44         O  0.86581973  0.18068424  0.32561307    -0.65000
Ni45       Ni  0.92595717  0.20925446  0.33262955     1.26300
O46         O  0.99846596  0.17174591  0.31855523    -0.65300
O47         O  0.91083836  0.21382295  0.35660232    -0.77600
C48         C  0.96363343  0.29581907  0.32316761     0.85900
O49         O  0.92852403  0.26274052  0.32771800    -0.64700
Ni50       Ni  0.88082153  0.11153650  0.34923497     1.27400
Ni51       Ni  0.93895754  0.14940955  0.31256828     1.26100
H52         H  0.91947155  0.19944371  0.30093770     0.40400
O53         O  0.77713096  0.74207791  0.31671127    -0.79500
O54         O  0.97743103  0.87798672  0.31663811    -0.64200
O55         O  0.86606858  0.77848209  0.30884701    -1.10800
C56         C  0.88115885  0.75234764  0.36971934     1.07400
O57         O  0.99935924  0.83846937  0.33072103    -0.77400
O58         O  0.95028474  0.75657708  0.34139338    -0.65000
Ni59       Ni  0.81923150  0.78477164  0.30068766     1.34900
C60         C  0.92346486  0.72728042  0.33119207     0.86100
O61         O  0.92517621  0.84797302  0.28782710    -0.78000
O62         O  0.85522569  0.82650038  0.28319577    -0.88200
C63         C  0.00724355  0.87354289  0.32352011     0.85700
O64         O  0.82793096  0.83012269  0.31654532    -0.66400
O65         O  0.92013208  0.78300946  0.36893873    -0.85700
C66         C  0.86320620  0.86433517  0.31995996     0.86500
C67         C  0.89486726  0.84763922  0.27877481     1.08100
H68         H  0.90478881  0.82799262  0.34311310     0.39900
O69         O  0.91263641  0.81020345  0.33627612    -1.08400
O70         O  0.88927383  0.72573810  0.32552258    -0.65000
Ni71       Ni  0.86069027  0.75714433  0.33245119     1.26300
O72         O  0.89988037  0.86779928  0.31797912    -0.65300
O73         O  0.85600170  0.73764411  0.35644064    -0.77600
C74         C  0.77403878  0.70799925  0.32328910     0.85900
O75         O  0.80702010  0.70592193  0.32767601    -0.64700
Ni76       Ni  0.95805132  0.81048599  0.34929772     1.27400
Ni77       Ni  0.92094024  0.82961270  0.31215944     1.26100
H78         H  0.86957347  0.75972804  0.30068286     0.40400
O79         O  0.73866367  0.66648091  0.50168117    -0.79500
O80         O  0.80233785  0.53056938  0.50113541    -0.64200
O81         O  0.79116435  0.63006945  0.50899413    -1.10800
C82         C  0.83141289  0.65527686  0.44794629     1.07400
O83         O  0.86408527  0.57033531  0.48704467    -0.77400
O84         O  0.89697068  0.65207471  0.47612423    -0.65000
Ni85       Ni  0.73820097  0.62378524  0.51752156     1.34900
C86         C  0.89970298  0.68154745  0.48621989     0.86100
O87         O  0.78082964  0.56077944  0.53001729    -0.78000
O88         O  0.73246139  0.58201369  0.53490303    -0.88200
C89         C  0.83681965  0.53522848  0.49431585     0.85700
O90         O  0.70092773  0.57852101  0.50172425    -0.66400
O91         O  0.83976254  0.62483150  0.44878017    -0.85700
C92         C  0.70159446  0.54427348  0.49827547     0.86500
C93         C  0.75095977  0.56099331  0.53919545     1.08100
H94         H  0.77951282  0.58006884  0.47476494     0.39900
O95         O  0.80534083  0.59806218  0.48152219    -1.08400
O96         O  0.86703800  0.68297776  0.49195720    -0.65000
Ni97       Ni  0.80661332  0.65099905  0.48528230     1.26300
O98         O  0.73479702  0.54075517  0.50007279    -0.65300
O99         O  0.82098768  0.67001672  0.46120074    -0.77600
C100        C  0.76951397  0.70019991  0.49468023     0.85900
O101        O  0.80433971  0.70212667  0.48995893    -0.64700
Ni102      Ni  0.85047328  0.59786026  0.46844232     1.27400
Ni103      Ni  0.79453922  0.57893662  0.50565474     1.26100
H104        H  0.81382882  0.64899068  0.51702777     0.40400
O105        O  0.32823082  0.07653319  0.31637607    -0.79500
O106        O  0.19262959  0.14048676  0.31698162    -0.64200
O107        O  0.29198759  0.12915381  0.30899516    -1.10800
C108        C  0.31789198  0.17026309  0.36993497     1.07400
O109        O  0.23283752  0.20255425  0.33075624    -0.77400
O110        O  0.31462704  0.23555793  0.34155148    -0.65000
Ni111      Ni  0.28554790  0.07606689  0.30055032     1.34900
C112        C  0.34396072  0.23801518  0.33144648     0.86100
O113        O  0.22243896  0.11860603  0.28809078    -0.78000
O114        O  0.24371416  0.07026778  0.28320717    -0.88200
C115        C  0.19748210  0.17510838  0.32372161     0.85700
O116        O  0.24039621  0.03898612  0.31641469    -0.66400
O117        O  0.28762726  0.17887474  0.36907889    -0.85700
C118        C  0.20624957  0.03976718  0.31993392     0.86500
C119        C  0.22262396  0.08869979  0.27893510     1.08100
H120        H  0.24242056  0.11811674  0.34331968     0.39900
O121        O  0.26038082  0.14380291  0.33647574    -1.08400
O122        O  0.34526086  0.20519288  0.32583015    -0.65000
Ni123      Ni  0.31319511  0.14486843  0.33265825     1.26300
O124        O  0.20277992  0.07299453  0.31813749    -0.65300
O125        O  0.33242718  0.15950746  0.35670684    -0.77600
C126        C  0.36212752  0.10744653  0.32322818     0.85900
O127        O  0.36419800  0.14235820  0.32792733    -0.64700
Ni128      Ni  0.26048398  0.18927829  0.34940386     1.27400
Ni129      Ni  0.24092484  0.13263374  0.31239625     1.26100
H130        H  0.31082549  0.15171168  0.30090359     0.40400
O131        O  0.40370261  0.11492523  0.50153698    -0.79500
O132        O  0.53971503  0.31529037  0.50141111    -0.64200
O133        O  0.44016537  0.20395736  0.50928173    -1.10800
C134        C  0.41404631  0.21873390  0.44836200     1.07400
O135        O  0.50033778  0.33723275  0.48721731    -0.77400
O136        O  0.41835855  0.28800332  0.47657916    -0.65000
Ni137      Ni  0.44648315  0.15716678  0.51749951     1.34900
C138        C  0.38895875  0.26118051  0.48674793     0.86100
O139        O  0.50972411  0.26317711  0.53027579    -0.78000
O140        O  0.48828236  0.19325522  0.53495369    -0.88200
C141        C  0.53535559  0.34510394  0.49447188     0.85700
O142        O  0.49178093  0.16578803  0.50161687    -0.66400
O143        O  0.44476536  0.25767756  0.44911718    -0.85700
C144        C  0.52599294  0.20104846  0.49817159     0.86500
C145        C  0.50941950  0.23290847  0.53935355     1.08100
H146        H  0.48967947  0.24248060  0.47500340     0.39900
O147        O  0.47190245  0.25038708  0.48181553    -1.08400
O148        O  0.38740225  0.22704424  0.49249911    -0.65000
Ni149      Ni  0.41883900  0.19844686  0.48566095     1.26300
O150        O  0.52948099  0.23773275  0.50014036    -0.65300
O151        O  0.39932812  0.19362688  0.46165890    -0.77600
C152        C  0.36970983  0.11181677  0.49485357     0.85900
O153        O  0.36762384  0.14478725  0.49045575    -0.64700
Ni154      Ni  0.47227335  0.29573185  0.46870936     1.27400
Ni155      Ni  0.49131877  0.25882299  0.50593410     1.26100
H156        H  0.42140270  0.20750039  0.51742852     0.40400
O157        O  0.11052461  0.40885631  0.98359029    -0.79500
O158        O  0.31069328  0.54464623  0.98323386    -0.64200
O159        O  0.19933445  0.44517436  0.97546307    -1.10800
C160        C  0.21483257  0.41812837  0.03619315     1.07400
O161        O  0.33283542  0.50515024  0.99719553    -0.77400
O162        O  0.28394913  0.42305053  0.00762535    -0.65000
Ni163      Ni  0.15240177  0.45155418  0.96749842     1.34900
C164        C  0.25698277  0.39375128  0.99746612     0.86100
O165        O  0.25820555  0.51487567  0.95447453    -0.78000
O166        O  0.18818045  0.49330730  0.94996992    -0.88200
C167        C  0.34057179  0.54025447  0.99007176     0.85700
O168        O  0.16132213  0.49687988  0.98341484    -0.66400
O169        O  0.25381523  0.44878294  0.03540548    -0.85700
C170        C  0.19665239  0.53100315  0.98684872     0.86500
C171        C  0.22778006  0.51449940  0.94548685     1.08100
H172        H  0.23829640  0.49428057  0.00977739     0.39900
O173        O  0.24611244  0.47658138  0.00285857    -1.08400
O174        O  0.22269035  0.39218904  0.99190835    -0.65000
Ni175      Ni  0.19414325  0.42354426  0.99900482     1.26300
O176        O  0.23326825  0.53441130  0.98478414    -0.65300
O177        O  0.18956864  0.40371218  0.02293891    -0.77600
C178        C  0.10743623  0.37462806  0.98999881     0.85900
O179        O  0.14043995  0.37240714  0.99420087    -0.64700
Ni180      Ni  0.29161736  0.47673839  0.01576296     1.27400
Ni181      Ni  0.25421839  0.49627136  0.97876992     1.26100
H182        H  0.20276478  0.42651431  0.96721864     0.40400
O183        O  0.07317421  0.33326296  0.16817529    -0.79500
O184        O  0.13743269  0.19776026  0.16815715    -0.64200
O185        O  0.12573483  0.29704639  0.17567331    -1.10800
C186        C  0.16589528  0.32131745  0.11456544     1.07400
O187        O  0.19916879  0.23775349  0.15411267    -0.77400
O188        O  0.23165345  0.31909523  0.14277119    -0.65000
Ni189      Ni  0.07262763  0.29060691  0.18407951     1.34900
C190        C  0.23430222  0.34852027  0.15287134     0.86100
O191        O  0.11566148  0.22817901  0.19689462    -0.78000
O192        O  0.06678364  0.24886697  0.20151869    -0.88200
C193        C  0.17196124  0.20255383  0.16133198     0.85700
O194        O  0.03573151  0.24531704  0.16822153    -0.66400
O195        O  0.17419912  0.29084877  0.11550742    -0.85700
C196        C  0.03646912  0.21103714  0.16493855     0.86500
C197        C  0.08549764  0.22813200  0.20594587     1.08100
H198        H  0.11427849  0.24663517  0.14159348     0.39900
O199        O  0.14009463  0.26477818  0.14833206    -1.08400
O200        O  0.20158463  0.34978289  0.15864464    -0.65000
Ni201      Ni  0.14122452  0.31766253  0.15191663     1.26300
O202        O  0.06964792  0.20755589  0.16693491    -0.65300
O203        O  0.15566909  0.33636668  0.12778276    -0.77600
C204        C  0.10399708  0.36686446  0.16108473     0.85900
O205        O  0.13883946  0.36876704  0.15641763    -0.64700
Ni206      Ni  0.18528227  0.26455743  0.13531826     1.27400
Ni207      Ni  0.12935425  0.24600808  0.17250945     1.26100
H208        H  0.14832028  0.31612962  0.18370208     0.40400
O209        O  0.66157072  0.74268162  0.98326977    -0.79500
O210        O  0.52621502  0.80669362  0.98368284    -0.64200
O211        O  0.62558328  0.79542996  0.97572377    -1.10800
C212        C  0.65183219  0.83689712  0.03663063     1.07400
O213        O  0.56622338  0.86872269  0.99752412    -0.77400
O214        O  0.64811317  0.90193026  0.00813503    -0.65000
Ni215      Ni  0.61933822  0.74245851  0.96723475     1.34900
C216        C  0.67736990  0.90435186  0.99799025     0.86100
O217        O  0.55603769  0.78479522  0.95482568    -0.78000
O218        O  0.57791661  0.73697405  0.94974391    -0.88200
C219        C  0.53094115  0.84123415  0.99045230     0.85700
O220        O  0.57373574  0.70499598  0.98284619    -0.66400
O221        O  0.62155774  0.84550173  0.03579439    -0.85700
C222        C  0.53975522  0.70596428  0.98651349     0.86500
C223        C  0.55652912  0.75517319  0.94557859     1.08100
H224        H  0.57608677  0.78447426  0.01005536     0.39900
O225        O  0.59402206  0.81015156  0.00320240    -1.08400
O226        O  0.67879995  0.87152669  0.99246887    -0.65000
Ni227      Ni  0.64684420  0.81123993  0.99936836     1.26300
O228        O  0.53646009  0.73932043  0.98488581    -0.65300
O229        O  0.66621504  0.82601118  0.02339437    -0.77600
C230        C  0.69557068  0.77363279  0.99004793     0.85900
O231        O  0.69780026  0.80869059  0.99462095    -0.64700
Ni232      Ni  0.59413773  0.85564630  0.01613113     1.27400
Ni233      Ni  0.57454565  0.79890595  0.97911807     1.26100
H234        H  0.64438919  0.81800121  0.96763056     0.40400
O235        O  0.73781718  0.78195055  0.16799839    -0.79500
O236        O  0.87415373  0.98230656  0.16824284    -0.64200
O237        O  0.77446125  0.87094101  0.17580624    -1.10800
C238        C  0.74962202  0.88616298  0.11476179     1.07400
O239        O  0.83500711  0.00424338  0.15386405    -0.77400
O240        O  0.75337188  0.95522296  0.14278747    -0.65000
Ni241      Ni  0.78075383  0.82409182  0.18394335     1.34900
C242        C  0.72390399  0.92858558  0.15298451     0.86100
O243        O  0.84358268  0.92993040  0.19700654    -0.78000
O244        O  0.82268832  0.86004932  0.20139155    -0.88200
C245        C  0.86990493  0.01211758  0.16123393     0.85700
O246        O  0.82590069  0.83281269  0.16795121    -0.66400
O247        O  0.78059027  0.92499269  0.11555110    -0.85700
C248        C  0.86031937  0.86808312  0.16475334     0.86500
C249        C  0.84352127  0.89960906  0.20594700     1.08100
H250        H  0.82462063  0.90957786  0.14169886     0.39900
O251        O  0.80677121  0.91753999  0.14842633    -1.08400
O252        O  0.72228653  0.89452255  0.15886678    -0.65000
Ni253      Ni  0.75356915  0.86570926  0.15212337     1.26300
O254        O  0.86397997  0.90477705  0.16696410    -0.65300
O255        O  0.73447528  0.86114174  0.12806737    -0.77600
C256        C  0.70403995  0.77904703  0.16117590     0.85900
O257        O  0.70215969  0.81212723  0.15677100    -0.64700
Ni258      Ni  0.80752712  0.96294946  0.13523867     1.27400
Ni259      Ni  0.82568560  0.92581211  0.17261256     1.26100
H260        H  0.75555921  0.87436351  0.18391761     0.40400
O261        O  0.32890455  0.95913719  0.98419690    -0.79500
O262        O  0.26470884  0.75981447  0.98400294    -0.64200
O263        O  0.27561802  0.87031847  0.97606811    -1.10800
C264        C  0.23244688  0.85403758  0.03675918     1.07400
O265        O  0.20212238  0.73709651  0.99734612    -0.77400
O266        O  0.16819911  0.78507417  0.00766382    -0.65000
Ni267      Ni  0.32828226  0.91774496  0.96750416     1.34900
C268        C  0.16633391  0.81260644  0.99779942     0.86100
O269        O  0.28693720  0.81182653  0.95514561    -0.78000
O270        O  0.33258808  0.88225050  0.94948269    -0.88200
C271        C  0.23016316  0.72969700  0.99074613     0.85700
O272        O  0.36700835  0.90958606  0.98222241    -0.66400
O273        O  0.22318194  0.81488769  0.03578513    -0.85700
C274        C  0.36559784  0.87462848  0.98633430     0.86500
C275        C  0.31530089  0.84241193  0.94555754     1.08100
H276        H  0.28573693  0.83138758  0.01046378     0.39900
O277        O  0.26031568  0.82368247  0.00347251    -1.08400
O278        O  0.19945052  0.84732895  0.99264774    -0.65000
Ni279      Ni  0.25957433  0.87559574  0.99967841     1.26300
O280        O  0.33172540  0.83788430  0.98538136    -0.65300
O281        O  0.24450399  0.87990134  0.02367421    -0.77600
C282        C  0.29775604  0.96228580  0.99053980     0.85900
O283        O  0.26244723  0.92927059  0.99494433    -0.64700
Ni284      Ni  0.21411548  0.77768086  0.01605150     1.27400
Ni285      Ni  0.27227244  0.81586333  0.97941726     1.26100
H286        H  0.25299364  0.86618556  0.96797891     0.40400
O287        O  0.28881335  0.99945607  0.16761069    -0.79500
O288        O  0.08919840  0.93575229  0.16767651    -0.64200
O289        O  0.19969750  0.94633628  0.17542059    -1.10800
C290        C  0.18319943  0.90423357  0.11457071     1.07400
O291        O  0.06638930  0.87333958  0.15417995    -0.77400
O292        O  0.11430934  0.83953759  0.14358836    -0.65000
Ni293      Ni  0.24710826  0.99890443  0.18411124     1.34900
C294        C  0.14197043  0.83744556  0.15328121     0.86100
O295        O  0.14116425  0.95736937  0.19649808    -0.78000
O296        O  0.21150262  0.00346795  0.20202405    -0.88200
C297        C  0.05901891  0.90128514  0.16090384     0.85700
O298        O  0.23924722  0.03758874  0.16924648    -0.66400
O299        O  0.14404613  0.89492673  0.11562246    -0.85700
C300        C  0.20434448  0.03650415  0.16532592     0.86500
C301        C  0.17169126  0.98598756  0.20601588     1.08100
H302        H  0.16068980  0.95713445  0.14115029     0.39900
O303        O  0.15300900  0.93159669  0.14805783    -1.08400
O304        O  0.17673329  0.87046133  0.15847983    -0.65000
Ni305      Ni  0.20493330  0.93078246  0.15169909     1.26300
O306        O  0.16747057  0.00280176  0.16640857    -0.65300
O307        O  0.20917033  0.91623129  0.12761543    -0.77600
C308        C  0.29171752  0.96854632  0.16084331     0.85900
O309        O  0.25861433  0.93351959  0.15624963    -0.64700
Ni310      Ni  0.10692738  0.88561651  0.13541882     1.27400
Ni311      Ni  0.14524463  0.94315478  0.17217159     1.26100
H312        H  0.19555333  0.92353800  0.18341275     0.40400
O313        O  0.39997182  0.90313108  0.31972169    -0.79500
O314        O  0.59211909  0.03544157  0.32283662    -0.64200
O315        O  0.48662032  0.93108933  0.31427665    -1.10800
C316        C  0.50427160  0.89338984  0.37166515     1.07400
O317        O  0.62214559  0.99950057  0.33391881    -0.77400
O318        O  0.57110224  0.91146585  0.33358635    -0.65000
Ni319      Ni  0.44133576  0.93071471  0.30113326     1.34900
C320        C  0.53580047  0.87708739  0.33039048     0.86100
O321        O  0.54320534  0.00362647  0.29407748    -0.78000
O322        O  0.47937706  0.95777038  0.28148747    -0.88200
C323        C  0.62513299  0.03345683  0.32725307     0.85700
O324        O  0.44921466  0.98483766  0.30882682    -0.66400
O325        O  0.54382771  0.91410482  0.36709593    -0.85700
C326        C  0.47576108  0.01399720  0.31915224     0.86500
C327        C  0.51825328  0.98864227  0.28074773     1.08100
H328        H  0.52981939  0.98173061  0.34987699     0.39900
O329        O  0.53317892  0.96290400  0.34170089    -1.08400
O330        O  0.49913066  0.87346618  0.33265505    -0.65000
Ni331      Ni  0.47823600  0.91184108  0.33841885     1.26300
O332        O  0.50977054  0.01542285  0.32498614    -0.65300
O333        O  0.47402553  0.89361698  0.36277545    -0.77600
C334        C  0.39193320  0.86809358  0.32700723     0.85900
O335        O  0.42163897  0.86358739  0.33397076    -0.64700
Ni336      Ni  0.57990391  0.95631938  0.34975185     1.27400
Ni337      Ni  0.53851262  0.98416757  0.31808105     1.26100
H338        H  0.49452924  0.91327725  0.30749114     0.40400
O339        O  0.53555442  0.17158245  0.16359228    -0.79500
O340        O  0.59469616  0.03940908  0.16048970    -0.64200
O341        O  0.59392754  0.14349942  0.16909895    -1.10800
C342        C  0.64840866  0.18064335  0.11138603     1.07400
O343        O  0.66060754  0.07534462  0.14902344    -0.77400
O344        O  0.69856054  0.16316522  0.14870393    -0.65000
Ni345      Ni  0.54879508  0.14372626  0.18216570     1.34900
C346        C  0.69782383  0.19727772  0.15234147     0.86100
O347        O  0.57796515  0.07129749  0.18930022    -0.78000
O348        O  0.55918686  0.11640862  0.20179169    -0.88200
C349        C  0.62966669  0.04148908  0.15589355     0.85700
O350        O  0.50222700  0.08971195  0.17435457    -0.66400
O351        O  0.66662215  0.15929089  0.11558374    -0.85700
C352        C  0.49948277  0.06031271  0.16421029     0.86500
C353        C  0.56751785  0.08594314  0.20257949     1.08100
H354        H  0.58546141  0.09288258  0.13352055     0.39900
O355        O  0.60812719  0.11166772  0.14158093    -1.08400
O356        O  0.66461410  0.20080348  0.15066793    -0.65000
Ni357      Ni  0.60494578  0.16286024  0.14499336     1.26300
O358        O  0.53212266  0.05878744  0.15850972    -0.65300
O359        O  0.61886387  0.18124222  0.12065976    -0.77600
C360        C  0.56303629  0.20677516  0.15644989     0.85900
O361        O  0.59743022  0.21133135  0.14959490    -0.64700
Ni362      Ni  0.66099316  0.11774206  0.13304588     1.27400
Ni363      Ni  0.59250355  0.09053410  0.16525240     1.26100
H364        H  0.61972530  0.16135923  0.17589475     0.40400
O365        O  0.16602487  0.53868523  0.32004320    -0.79500
O366        O  0.03518624  0.59916051  0.32275517    -0.64200
O367        O  0.13902731  0.59778574  0.31431778    -1.10800
C368        C  0.17668926  0.65278788  0.37185330     1.07400
O369        O  0.07099889  0.66491143  0.33440991    -0.77400
O370        O  0.15887848  0.70233834  0.33423070    -0.65000
Ni371      Ni  0.13901882  0.55249460  0.30130922     1.34900
C372        C  0.19309346  0.70160069  0.33080570     0.86100
O373        O  0.06708684  0.58203846  0.29398874    -0.78000
O374        O  0.11251932  0.56354643  0.28158073    -0.88200
C375        C  0.03719664  0.63403262  0.32747383     0.85700
O376        O  0.08452195  0.50617166  0.30884824    -0.66400
O377        O  0.15580567  0.67139277  0.36750714    -0.85700
C378        C  0.05526113  0.50357460  0.31903907     0.86500
C379        C  0.08198886  0.57177231  0.28072739     1.08100
H380        H  0.08837742  0.58981488  0.34984895     0.39900
O381        O  0.10729343  0.61235595  0.34176763    -1.08400
O382        O  0.19662486  0.66842876  0.33272944    -0.65000
Ni383      Ni  0.15830524  0.60875501  0.33842461     1.26300
O384        O  0.05417742  0.53634441  0.32487561    -0.65300
O385        O  0.17665004  0.62267938  0.36275814    -0.77600
C386        C  0.20142365  0.56594147  0.32711058     0.85900
O387        O  0.20645467  0.60061405  0.33388442    -0.64700
Ni388      Ni  0.11384304  0.66549081  0.35018858     1.27400
Ni389      Ni  0.08620918  0.59668348  0.31807433     1.26100
H390        H  0.15703647  0.62353995  0.30752001     0.40400
O391        O  0.89890747  0.40400906  0.16332756    -0.79500
O392        O  0.03160228  0.59656825  0.16023130    -0.64200
O393        O  0.92748033  0.49080762  0.16890283    -1.10800
C394        C  0.88987754  0.50861264  0.11136698     1.07400
O395        O  0.99518875  0.62630056  0.14939257    -0.77400
O396        O  0.90718763  0.57552803  0.14902759    -0.65000
Ni397      Ni  0.92730821  0.44535052  0.18185609     1.34900
C398        C  0.87312987  0.54025954  0.15260744     0.86100
O399        O  0.00020078  0.54752173  0.18900103    -0.78000
O400        O  0.95521377  0.48323385  0.20147040    -0.88200
C401        C  0.02933972  0.62950802  0.15594573     0.85700
O402        O  0.98102347  0.45304954  0.17374514    -0.66400
O403        O  0.91121038  0.54829550  0.11571608    -0.85700
C404        C  0.01040921  0.48007867  0.16363025     0.86500
C405        C  0.98578149  0.52225280  0.20225798     1.08100
H406        H  0.97766694  0.53384141  0.13327537     0.39900
O407        O  0.95898062  0.53739790  0.14145944    -1.08400
O408        O  0.86975864  0.50360707  0.15073859    -0.65000
Ni409      Ni  0.90785633  0.48254306  0.14481160     1.26300
O410        O  0.01198926  0.51435986  0.15805381    -0.65300
O411        O  0.88929293  0.47829160  0.12050425    -0.77600
C412        C  0.86382670  0.39625711  0.15617706     0.85900
O413        O  0.85945030  0.42612999  0.14932636    -0.64700
Ni414      Ni  0.95273027  0.58425584  0.13327874     1.27400
Ni415      Ni  0.98049156  0.54281196  0.16503776     1.26100
H416        H  0.90973445  0.49861955  0.17579057     0.40400
O417        O  0.53044313  0.67090251  0.32020927    -0.79500
O418        O  0.47044176  0.47874143  0.32266415    -0.64200
O419        O  0.47226670  0.58421657  0.31413114    -1.10800
C420        C  0.41667479  0.56555443  0.37189051     1.07400
O421        O  0.40422541  0.44848513  0.33373625    -0.77400
O422        O  0.36595045  0.49803563  0.33501048    -0.65000
Ni423      Ni  0.51840056  0.63024618  0.30152479     1.34900
C424        C  0.36706187  0.53295456  0.33108080     0.86100
O425        O  0.48817841  0.52804408  0.29391342    -0.78000
O426        O  0.50932231  0.59301902  0.28180131    -0.88200
C427        C  0.43540087  0.44561598  0.32723966     0.85700
O428        O  0.56439299  0.62291688  0.30987181    -0.66400
O429        O  0.39927580  0.52576451  0.36788206    -0.85700
C430        C  0.56634415  0.59539191  0.31971159     0.86500
C431        C  0.50019208  0.55391254  0.28082529     1.08100
H432        H  0.47966034  0.54177187  0.34965256     0.39900
O433        O  0.45703994  0.53761802  0.34155709    -1.08400
O434        O  0.40073762  0.56983479  0.33223097    -0.65000
Ni435      Ni  0.46028056  0.59206644  0.33818154     1.26300
O436        O  0.53326471  0.56070430  0.32491904    -0.65300
O437        O  0.44553181  0.59612914  0.36244977    -0.77600
C438        C  0.50243199  0.67831856  0.32683209     0.85900
O439        O  0.46785800  0.64816984  0.33356681    -0.64700
Ni440      Ni  0.40429916  0.49018416  0.35010165     1.27400
Ni441      Ni  0.47310891  0.53234106  0.31792829     1.26100
H442        H  0.44682742  0.57645903  0.30714375     0.40400
O443        O  0.66728527  0.53550418  0.16346661    -0.79500
O444        O  0.47504017  0.47529219  0.16092374    -0.64200
O445        O  0.58056783  0.47734066  0.16949686    -1.10800
C446        C  0.56196211  0.42240989  0.11156180     1.07400
O447        O  0.44512032  0.40888836  0.15010767    -0.77400
O448        O  0.49468282  0.37070811  0.14817741    -0.65000
Ni449      Ni  0.62653827  0.52345038  0.18212201     1.34900
C450        C  0.52963132  0.37211063  0.15230933     0.86100
O451        O  0.52427488  0.49311682  0.18969719    -0.78000
O452        O  0.58924029  0.51434732  0.20182850    -0.88200
C453        C  0.44201586  0.44004583  0.15647285     0.85700
O454        O  0.61919967  0.56941291  0.17374266    -0.66400
O455        O  0.52212146  0.40517948  0.11546532    -0.85700
C456        C  0.59167375  0.57136457  0.16390452     0.86500
C457        C  0.55010809  0.50513796  0.20279372     1.08100
H458        H  0.53819562  0.48478733  0.13399172     0.39900
O459        O  0.53401691  0.46212692  0.14206997    -1.08400
O460        O  0.56637705  0.40598400  0.15139382    -0.65000
Ni461      Ni  0.58845014  0.46543369  0.14543939     1.26300
O462        O  0.55697576  0.53828433  0.15870521    -0.65300
O463        O  0.59253445  0.45075273  0.12116396    -0.77600
C464        C  0.67463619  0.50749261  0.15679171     0.85900
O465        O  0.64448305  0.47297468  0.15004483    -0.64700
Ni466      Ni  0.48659395  0.40949970  0.13346080     1.27400
Ni467      Ni  0.52867140  0.47811446  0.16568783     1.26100
H468        H  0.57281664  0.45189047  0.17647765     0.40400
O469        O  0.20039489  0.50384767  0.49698600    -0.79500
O470        O  0.26068456  0.37271545  0.49412603    -0.64200
O471        O  0.25954445  0.47668541  0.50247423    -1.10800
C472        C  0.31364836  0.51359476  0.44480404     1.07400
O473        O  0.32632021  0.40835748  0.48235495    -0.77400
O474        O  0.36369199  0.49629685  0.48243576    -0.65000
Ni475      Ni  0.21452314  0.47685622  0.51563798     1.34900
C476        C  0.36297810  0.53057697  0.48574734     0.86100
O477        O  0.24410734  0.40489369  0.52288986    -0.78000
O478        O  0.22581583  0.45041044  0.53533653    -0.88200
C479        C  0.29550513  0.37466180  0.48939234     0.85700
O480        O  0.16806277  0.42236296  0.50817815    -0.66400
O481        O  0.33246750  0.49293343  0.44918326    -0.96500
C482        C  0.16529602  0.39298873  0.49801120     0.86500
C483        C  0.23404054  0.41987763  0.53617536     1.08100
H484        H  0.25105428  0.42551785  0.46700902     0.39900
O485        O  0.27367695  0.44456746  0.47503023    -1.08400
O486        O  0.32978290  0.53405151  0.48380108    -0.65000
Ni487      Ni  0.27003512  0.49555910  0.47830397     1.26300
O488        O  0.19794786  0.39175750  0.49212886    -0.65300
O489        O  0.28351209  0.51347595  0.45390951    -0.77600
C490        C  0.22744139  0.53895205  0.48964672     0.85900
O491        O  0.26191442  0.54374599  0.48275854    -0.64700
Ni492      Ni  0.32675993  0.45110808  0.46654475     1.27400
Ni493      Ni  0.25836561  0.42379836  0.49876993     1.26100
H494        H  0.28543807  0.49478792  0.50917574     0.40400
O495        O  0.06614942  0.23610868  0.65333051    -0.79500
O496        O  0.25850275  0.36887684  0.65668789    -0.64200
O497        O  0.15297511  0.26469324  0.64784430    -1.10800
C498        C  0.17070189  0.22648094  0.70523131     1.07400
O499        O  0.28839667  0.33249863  0.66739986    -0.77400
O500        O  0.23756692  0.24446282  0.66732437    -0.65000
Ni501      Ni  0.10761451  0.26458945  0.63484380     1.34900
C502        C  0.20228289  0.21028574  0.66389184     0.86100
O503        O  0.20973332  0.33764819  0.62785311    -0.78000
O504        O  0.14565143  0.29256682  0.61526851    -0.88200
C505        C  0.29148819  0.36672220  0.66098476     0.85700
O506        O  0.11522011  0.31827947  0.64296419    -0.66400
O507        O  0.21031910  0.24755910  0.70076916    -0.85700
C508        C  0.14204263  0.34749872  0.65319201     0.86500
C509        C  0.18464474  0.32321493  0.61454574     1.08100
H510        H  0.19596592  0.31462643  0.68356171     0.39900
O511        O  0.19946454  0.29600224  0.67532235    -1.08400
O512        O  0.16562717  0.20679076  0.66596218    -0.65000
Ni513      Ni  0.14461459  0.24492325  0.67192242     1.26300
O514        O  0.17624528  0.34900548  0.65882967    -0.65300
O515        O  0.14037398  0.22624181  0.69622057    -0.77600
C516        C  0.05835302  0.20101859  0.66049314     0.85900
O517        O  0.08817818  0.19659569  0.66736824    -0.64700
Ni518      Ni  0.24630082  0.28954226  0.68334832     1.27400
Ni519      Ni  0.20489337  0.31772538  0.65178704     1.26100
H520        H  0.16087187  0.24702531  0.64094805     0.40400
O521        O  0.33287101  0.86817963  0.49683237    -0.79500
O522        O  0.14061050  0.80805753  0.49433136    -0.64200
O523        O  0.24607589  0.80978691  0.50275333    -1.10800
C524        C  0.22799455  0.75554012  0.44480129     1.07400
O525        O  0.11041830  0.74219208  0.48289697    -0.77400
O526        O  0.16004856  0.70399267  0.48152536    -0.65000
Ni527      Ni  0.29201527  0.85566943  0.51549424     1.34900
C528        C  0.19492011  0.70498596  0.48543739     0.86100
O529        O  0.18971265  0.82514137  0.52308564    -0.78000
O530        O  0.25463694  0.84612917  0.53521182    -0.88200
C531        C  0.10751649  0.77314842  0.48962004     0.85700
O532        O  0.28469129  0.90180985  0.50733859    -0.66400
O533        O  0.18816437  0.73800036  0.44876170    -0.85700
C534        C  0.25719938  0.90395482  0.49754958     0.86500
C535        C  0.21550404  0.83690707  0.53618999     1.08100
H536        H  0.20390300  0.81799839  0.46730913     0.39900
O537        O  0.19968257  0.79518099  0.47530515    -1.08400
O538        O  0.23182904  0.73866538  0.48437569    -0.65000
Ni539      Ni  0.25411376  0.79836208  0.47865601     1.26300
O540        O  0.22254256  0.87097692  0.49225420    -0.65300
O541        O  0.25844223  0.78423525  0.45433132    -0.77600
C542        C  0.34032244  0.84037173  0.49001267     0.85900
O543        O  0.31017582  0.80586001  0.48324473    -0.64700
Ni544      Ni  0.15236110  0.74264037  0.46655394     1.27400
Ni545      Ni  0.19419911  0.81066077  0.49900871     1.26100
H546        H  0.23829396  0.78420157  0.50964397     0.40400
O547        O  0.19648870  0.00405092  0.65321889    -0.79500
O548        O  0.13670901  0.81198769  0.65613897    -0.64200
O549        O  0.13841250  0.91726482  0.64726553    -1.10800
C550        C  0.08313894  0.89916032  0.70508933     1.07400
O551        O  0.07027880  0.78199296  0.66693453    -0.77400
O552        O  0.03188715  0.83135331  0.66846103    -0.65000
Ni553      Ni  0.18455470  0.96318993  0.63463005     1.34900
C554        C  0.03310200  0.86619927  0.66430846     0.86100
O555        O  0.15449717  0.86093499  0.62726896    -0.78000
O556        O  0.17556349  0.92574145  0.61500138    -0.88200
C557        C  0.10152405  0.77894235  0.66064133     0.85700
O558        O  0.23056801  0.95604821  0.64310150    -0.66400
O559        O  0.06588584  0.85929703  0.70122236    -0.85700
C560        C  0.23252154  0.92869387  0.65305038     0.86500
C561        C  0.16643383  0.88662317  0.61412428     1.08100
H562        H  0.14581910  0.87532707  0.68291411     0.39900
O563        O  0.12319435  0.87101922  0.67479068    -1.08400
O564        O  0.06685824  0.90304635  0.66526604    -0.65000
Ni565      Ni  0.12635968  0.92535181  0.67126676     1.26300
O566        O  0.19945829  0.89402455  0.65827639    -0.65300
O567        O  0.11160265  0.92965994  0.69549807    -0.77600
C568        C  0.16844666  0.01145221  0.65982060     0.85900
O569        O  0.13383279  0.98131970  0.66652209    -0.64700
Ni570      Ni  0.07055660  0.82361695  0.68339439     1.27400
Ni571      Ni  0.13934454  0.86549425  0.65122852     1.26100
H572        H  0.11298545  0.90938594  0.64024972     0.40400
O573        O  0.56431304  0.73756500  0.49687341    -0.79500
O574        O  0.69719672  0.92972830  0.49351176    -0.64200
O575        O  0.59266456  0.82441319  0.50211781    -1.10800
C576        C  0.55550592  0.84146822  0.44452831     1.07400
O577        O  0.66158478  0.95977920  0.48211531    -0.77400
O578        O  0.57350421  0.90897633  0.48233800    -0.65000
Ni579      Ni  0.59205464  0.77916371  0.51537922     1.34900
C580        C  0.53910373  0.87379364  0.48566812     0.86100
O581        O  0.66510127  0.88114889  0.52233552    -0.78000
O582        O  0.61921451  0.81737723  0.53496725    -0.88200
C583        C  0.69534799  0.96274817  0.48898066     0.85700
O584        O  0.64612478  0.78679301  0.50774861    -0.66400
O585        O  0.57638500  0.88109704  0.44897493    -0.85700
C586        C  0.67555042  0.81337367  0.49752082     0.86500
C587        C  0.65010532  0.85624957  0.53568367     1.08100
H588        H  0.64358517  0.86701502  0.46652148     0.39900
O589        O  0.62476242  0.87060632  0.47461650    -1.08400
O590        O  0.53536359  0.83702803  0.48357437    -0.65000
Ni591      Ni  0.57353212  0.81580181  0.47796244     1.26300
O592        O  0.67713099  0.84739030  0.49160713    -0.65300
O593        O  0.55542325  0.81128070  0.45357774    -0.77600
C594        C  0.52938438  0.72962700  0.48951080     0.85900
O595        O  0.52507354  0.75938828  0.48248716    -0.64700
Ni596      Ni  0.61847389  0.91734234  0.46631608     1.27400
Ni597      Ni  0.64583016  0.87621658  0.49828869     1.26100
H598        H  0.57486329  0.83244406  0.50884156     0.40400
O599        O  0.83236563  0.87207553  0.65291318    -0.79500
O600        O  0.70116218  0.93249264  0.65605669    -0.64200
O601        O  0.80482940  0.93091501  0.64734676    -1.10800
C602        C  0.84255592  0.98563853  0.70497143     1.07400
O603        O  0.73747896  0.99845654  0.66743171    -0.77400
O604        O  0.82529523  0.03591488  0.66769339    -0.65000
Ni605      Ni  0.80453877  0.88541681  0.63435388     1.34900
C606        C  0.85929420  0.03495139  0.66406321     0.86100
O607        O  0.73265126  0.91535115  0.62721233    -0.78000
O608        O  0.77723418  0.89586658  0.61473535    -0.88200
C609        C  0.70342126  0.96752538  0.66068244     0.85700
O610        O  0.75047670  0.83917791  0.64231478    -0.66400
O611        O  0.82133008  0.00400113  0.70080055    -0.85700
C612        C  0.72131027  0.83678705  0.65250781     0.86500
C613        C  0.74704984  0.90460577  0.61393876     1.08100
H614        H  0.75457619  0.92301869  0.68296733     0.39900
O615        O  0.77339670  0.94558368  0.67487641    -1.08400
O616        O  0.86257100  0.00158557  0.66570780    -0.65000
Ni617      Ni  0.82435273  0.94197867  0.67142374     1.26300
O618        O  0.72003784  0.86963635  0.65809968    -0.65300
O619        O  0.84290328  0.95593871  0.69572247    -0.77600
C620        C  0.86768764  0.89943562  0.66000111     0.85900
O621        O  0.87255904  0.93401555  0.66679491    -0.64700
Ni622      Ni  0.77981628  0.99860251  0.68338068     1.27400
Ni623      Ni  0.75207168  0.92992603  0.65124019     1.26100
H624        H  0.82279354  0.95661590  0.64051206     0.40400
O625        O  0.73358571  0.56909046  0.98648922    -0.79500
O626        O  0.92577448  0.70186410  0.98967340    -0.64200
O627        O  0.82031424  0.59756506  0.98096197    -1.10800
C628        C  0.83828108  0.55964626  0.03834254     1.07400
O629        O  0.95574958  0.66556041  0.00040225    -0.77400
O630        O  0.90499239  0.57758490  0.00036709    -0.65000
Ni631      Ni  0.77490708  0.59726528  0.96793722     1.34900
C632        C  0.86970155  0.54336867  0.99699606     0.86100
O633        O  0.87679475  0.67049144  0.96089669    -0.78000
O634        O  0.81285415  0.62495058  0.94831564    -0.88200
C635        C  0.95878689  0.69970867  0.99392872     0.85700
O636        O  0.78254848  0.65108633  0.97590776    -0.66400
O637        O  0.87787864  0.58067493  0.03384171    -0.85700
C638        C  0.80923570  0.68027642  0.98618414     0.86500
C639        C  0.85172868  0.65583866  0.94758770     1.08100
H640        H  0.86345725  0.64774321  0.01662798     0.39900
O641        O  0.86690515  0.62907327  0.00839549    -1.08400
O642        O  0.83304303  0.53981855  0.99913935    -0.65000
Ni643      Ni  0.81204490  0.57797606  0.00506360     1.26300
O644        O  0.84339236  0.68179817  0.99189198    -0.65300
O645        O  0.80793186  0.55947655  0.02937678    -0.77600
C646        C  0.72575343  0.53400742  0.99366547     0.85900
O647        O  0.75556825  0.52960995  0.00057295    -0.64700
Ni648      Ni  0.91377508  0.62265495  0.01639436     1.27400
Ni649      Ni  0.87216847  0.65065856  0.98484020     1.26100
H650        H  0.82825097  0.57988820  0.97409419     0.40400
O651        O  0.86793982  0.83794152  0.83018203    -0.79500
O652        O  0.92713851  0.70609952  0.82738529    -0.64200
O653        O  0.92664118  0.81036931  0.83574059    -1.10800
C654        C  0.98067182  0.84714257  0.77804228     1.07400
O655        O  0.99270390  0.74144649  0.81551861    -0.77400
O656        O  0.03067649  0.82939138  0.81551196    -0.65000
Ni657      Ni  0.88174800  0.81083667  0.84888022     1.34900
C658        C  0.03015993  0.86371799  0.81895137     0.86100
O659        O  0.91072972  0.73847797  0.85613703    -0.78000
O660        O  0.89279680  0.78426247  0.86859786    -0.88200
C661        C  0.96191446  0.70792009  0.82266313     0.85700
O662        O  0.83505510  0.75645706  0.84144125    -0.66400
O663        O  0.99918395  0.82612663  0.78232905    -0.85700
C664        C  0.83211686  0.72703085  0.83126060     0.86500
C665        C  0.90077947  0.75356126  0.86942555     1.08100
H666        H  0.91773497  0.75917255  0.80026133     0.39900
O667        O  0.94046262  0.77809532  0.80827064    -1.08400
O668        O  0.99707393  0.86741528  0.81709753    -0.65000
Ni669      Ni  0.93726637  0.82930970  0.81158564     1.26300
O670        O  0.86466282  0.72560137  0.82537800    -0.65300
O671        O  0.95077411  0.84729554  0.78721183    -0.77600
C672        C  0.89522533  0.87309897  0.82295530     0.85900
O673        O  0.92964671  0.87774828  0.81608823    -0.64700
Ni674      Ni  0.99331634  0.78423898  0.79969436     1.27400
Ni675      Ni  0.92509476  0.75733966  0.83201832     1.26100
H676        H  0.95255416  0.82833478  0.84245444     0.40400
O677        O  0.86447886  0.33740789  0.98659206    -0.79500
O678        O  0.80353847  0.14494710  0.98880231    -0.64200
O679        O  0.80615305  0.25084474  0.98040860    -1.10800
C680        C  0.75067552  0.23186116  0.03824783     1.07400
O681        O  0.73713468  0.11508113  0.99962016    -0.77400
O682        O  0.69938514  0.16499669  0.00133987    -0.65000
Ni683      Ni  0.85253575  0.29684178  0.96788149     1.34900
C684        C  0.70086953  0.20006320  0.99737185     0.86100
O685        O  0.82176261  0.19452542  0.96013724    -0.78000
O686        O  0.84362209  0.25973045  0.94812086    -0.88200
C687        C  0.76824560  0.11193892  0.99322844     0.85700
O688        O  0.89825936  0.28925893  0.97635829    -0.66400
O689        O  0.73314725  0.19206805  0.03421012    -0.85700
C690        C  0.89994783  0.26152886  0.98615642     0.86500
C691        C  0.83416477  0.22052974  0.94709586     1.08100
H692        H  0.81306597  0.20788026  0.01586315     0.39900
O693        O  0.79053081  0.20393041  0.00776037    -1.08400
O694        O  0.73473587  0.23677563  0.99849368    -0.65000
Ni695      Ni  0.79413765  0.25854132  0.00448364     1.26300
O696        O  0.86672910  0.22676341  0.99121003    -0.65300
O697        O  0.77939585  0.26245327  0.02876888    -0.77600
C698        C  0.83647068  0.34481733  0.99321987     0.85900
O699        O  0.80192606  0.31471253  0.99997022    -0.64700
Ni700      Ni  0.73766245  0.15657923  0.01623343     1.27400
Ni701      Ni  0.80663331  0.19875679  0.98413791     1.26100
H702        H  0.78078771  0.24330103  0.97340532     0.40400
O703        O  0.99985989  0.20220134  0.82916014    -0.79500
O704        O  0.80779123  0.14150084  0.82755552    -0.64200
O705        O  0.91360245  0.14379205  0.83556569    -1.10800
C706        C  0.89429908  0.08866303  0.77774702     1.07400
O707        O  0.77755993  0.07538890  0.81635781    -0.77400
O708        O  0.82737723  0.03749298  0.81477936    -0.65000
Ni709      Ni  0.95976562  0.18994525  0.84808322     1.34900
C710        C  0.86242340  0.03878636  0.81861284     0.86100
O711        O  0.85771251  0.15929980  0.85609941    -0.78000
O712        O  0.92293100  0.18053148  0.86799151    -0.88200
C713        C  0.77467018  0.10636168  0.82307216     0.85700
O714        O  0.95200516  0.23585282  0.84000437    -0.66400
O715        O  0.85454341  0.07101683  0.78186296    -0.85700
C716        C  0.92429487  0.23777933  0.83028479     0.86500
C717        C  0.88378933  0.17124510  0.86911361     1.08100
H718        H  0.87043383  0.15120907  0.80026059     0.39900
O719        O  0.86651397  0.12857785  0.80830273    -1.08400
O720        O  0.89920939  0.07251424  0.81733624    -0.65000
Ni721      Ni  0.92110318  0.13201735  0.81145147     1.26300
O722        O  0.88962797  0.20465654  0.82508416    -0.65300
O723        O  0.92490686  0.11755623  0.78714237    -0.77600
C724        C  0.00733589  0.17418484  0.82259974     0.85900
O725        O  0.97724072  0.13963812  0.81585543    -0.64700
Ni726      Ni  0.81910217  0.07575707  0.79980954     1.27400
Ni727      Ni  0.86159748  0.14443928  0.83201330     1.26100
H728        H  0.90606328  0.11834333  0.84251153     0.40400
O729        O  0.49981770  0.20546220  0.98689583    -0.79500
O730        O  0.36855414  0.26551367  0.98949531    -0.64200
O731        O  0.47242762  0.26418015  0.98110720    -1.10800
C732        C  0.50961193  0.31921823  0.03872546     1.07400
O733        O  0.40462594  0.33151343  0.00088151    -0.77400
O734        O  0.49251100  0.36914309  0.00122746    -0.65000
Ni735      Ni  0.47245437  0.21880173  0.96816092     1.34900
C736        C  0.52657671  0.36821477  0.99769104     0.86100
O737        O  0.40039911  0.24821930  0.96077140    -0.78000
O738        O  0.44555235  0.22931726  0.94841056    -0.88200
C739        C  0.37070501  0.30054488  0.99405409     0.85700
O740        O  0.41821376  0.17246855  0.97590395    -0.66400
O741        O  0.48843182  0.33755660  0.03443323    -0.85700
C742        C  0.38894807  0.16994808  0.98606953     0.86500
C743        C  0.41509537  0.23765330  0.94753520     1.08100
H744        H  0.42175254  0.25631899  0.01660636     0.39900
O745        O  0.44064454  0.27885427  0.00851826    -1.08400
O746        O  0.52992327  0.33492318  0.99949024    -0.65000
Ni747      Ni  0.49168668  0.27532909  0.00523078     1.26300
O748        O  0.38763037  0.20273506  0.99172190    -0.65300
O749        O  0.50997936  0.28940546  0.02956291    -0.77600
C750        C  0.53519253  0.23291883  0.99390973     0.85900
O751        O  0.53997819  0.26742736  0.00074193    -0.64700
Ni752      Ni  0.44696058  0.33191141  0.01691999     1.27400
Ni753      Ni  0.41957078  0.26302672  0.98483862     1.26100
H754        H  0.49041434  0.28989802  0.97428565     0.40400
O755        O  0.23147128  0.07057128  0.83020142    -0.79500
O756        O  0.36403787  0.26283447  0.82734092    -0.64200
O757        O  0.25967926  0.15723737  0.83576372    -1.10800
C758        C  0.22260244  0.17554619  0.77828108     1.07400
O759        O  0.32788745  0.29284770  0.81648283    -0.77400
O760        O  0.23990260  0.24194580  0.81628400    -0.65000
Ni761      Ni  0.25920535  0.11179884  0.84882727     1.34900
C762        C  0.20564233  0.20660832  0.81955543     0.86100
O763        O  0.33226034  0.21362083  0.85603179    -0.78000
O764        O  0.28643947  0.14964798  0.86852331    -0.88200
C765        C  0.36189329  0.29586557  0.82311052     0.85700
O766        O  0.31325601  0.11964540  0.84106694    -0.66400
O767        O  0.24355742  0.21512069  0.78282388    -0.85700
C768        C  0.34261413  0.14640505  0.83086464     0.86500
C769        C  0.31737698  0.18849257  0.86931756     1.08100
H770        H  0.31043410  0.20069310  0.80023527     0.39900
O771        O  0.29160107  0.20404357  0.80841141    -1.08400
O772        O  0.20216001  0.16997491  0.81741191    -0.65000
Ni773      Ni  0.24049394  0.14910324  0.81160688     1.26300
O774        O  0.34412275  0.18050238  0.82508538    -0.65300
O775        O  0.22237317  0.14515652  0.78724322    -0.77600
C776        C  0.19648955  0.06268712  0.82290948     0.85900
O777        O  0.19212976  0.09250618  0.81597103    -0.64700
Ni778      Ni  0.28525484  0.25093365  0.80037906     1.27400
Ni779      Ni  0.31279895  0.20915700  0.83203035     1.26100
H780        H  0.24186414  0.16510703  0.84256935     0.40400
O781        O  0.66150096  0.62632584  0.65067299    -0.79500
O782        O  0.59685860  0.42642560  0.65043935    -0.64200
O783        O  0.60832504  0.53731112  0.64272278    -1.10800
C784        C  0.56553372  0.52075344  0.70350961     1.07400
O785        O  0.53447479  0.40385790  0.66395200    -0.77400
O786        O  0.50097876  0.45211730  0.67449054    -0.65000
Ni787      Ni  0.66124057  0.58462557  0.63424830     1.34900
C788        C  0.49910277  0.47971590  0.66467092     0.86100
O789        O  0.61927828  0.47873738  0.62164584    -0.78000
O790        O  0.66609396  0.54905882  0.61640100    -0.88200
C791        C  0.56232371  0.39634679  0.65722122     0.85700
O792        O  0.69927117  0.57632414  0.64935676    -0.66400
O793        O  0.55630138  0.48162163  0.70248738    -0.85700
C794        C  0.69796716  0.54124626  0.65314745     0.86500
C795        C  0.64834966  0.50930830  0.61227215     1.08100
H796        H  0.61846628  0.49802387  0.67700728     0.39900
O797        O  0.59299923  0.49042156  0.67006585    -1.08400
O798        O  0.53223628  0.51433869  0.65944552    -0.65000
Ni799      Ni  0.59241450  0.54246283  0.66639265     1.26300
O800        O  0.66422320  0.50447032  0.65184953    -0.65300
O801        O  0.57750953  0.54666695  0.69044020    -0.77600
C802        C  0.63040667  0.62928618  0.65720539     0.85900
O803        O  0.59531809  0.59620953  0.66177374    -0.64700
Ni804      Ni  0.54686846  0.44445446  0.68269925     1.27400
Ni805      Ni  0.60473260  0.48267217  0.64596104     1.26100
H806        H  0.58575262  0.53340801  0.63465029     0.40400
O807        O  0.62107123  0.66603071  0.83413322    -0.79500
O808        O  0.42168261  0.60178566  0.83442334    -0.64200
O809        O  0.53223563  0.61272302  0.84224740    -1.10800
C810        C  0.51571223  0.56964054  0.78152884     1.07400
O811        O  0.39890783  0.53923819  0.82105267    -0.77400
O812        O  0.44689658  0.50538872  0.81065508    -0.65000
Ni813      Ni  0.57964016  0.66544532  0.85079208     1.34900
C814        C  0.47450521  0.50348807  0.82045288     0.86100
O815        O  0.47375088  0.62390857  0.86322876    -0.78000
O816        O  0.54414862  0.66983602  0.86879468    -0.88200
C817        C  0.39154125  0.56727888  0.82767421     0.85700
O818        O  0.57142512  0.70404191  0.83601275    -0.66400
O819        O  0.47656661  0.56037317  0.78254807    -0.85700
C820        C  0.53642682  0.70262450  0.83197558     0.86500
C821        C  0.50432514  0.65241950  0.87276548     1.08100
H822        H  0.49315178  0.62288653  0.80790296     0.39900
O823        O  0.48548539  0.59745063  0.81487936    -1.08400
O824        O  0.50923850  0.53658759  0.82560885    -0.65000
Ni825      Ni  0.53743491  0.59674051  0.81861161     1.26300
O826        O  0.49969039  0.66877604  0.83301408    -0.65300
O827        O  0.54165225  0.58172322  0.79458964    -0.77600
C828        C  0.62417658  0.63493387  0.82770273     0.85900
O829        O  0.59115018  0.59965043  0.82328349    -0.64700
Ni830      Ni  0.43943469  0.55128223  0.80231444     1.27400
Ni831      Ni  0.47773750  0.60932878  0.83895133     1.26100
H832        H  0.52817006  0.59010113  0.85032479     0.40400
O833        O  0.40589417  0.99976438  0.83500193    -0.79500
O834        O  0.46889832  0.86356779  0.83454076    -0.64200
O835        O  0.45831098  0.96334516  0.84241028    -1.10800
C836        C  0.49883582  0.98845462  0.78138342     1.07400
O837        O  0.53087022  0.90336187  0.82063651    -0.77400
O838        O  0.56416885  0.98506640  0.80967901    -0.65000
Ni839      Ni  0.40551940  0.95738051  0.85098942     1.34900
C840        C  0.56690170  0.01455320  0.81976353     0.86100
O841        O  0.44759288  0.89386105  0.86340324    -0.78000
O842        O  0.39989690  0.91587918  0.86847428    -0.88200
C843        C  0.50336211  0.86815172  0.82775416     0.85700
O844        O  0.36784115  0.91186985  0.83537797    -0.66400
O845        O  0.50719311  0.95801382  0.78225124    -0.85700
C846        C  0.36854420  0.87772875  0.83174717     0.86500
C847        C  0.41805649  0.89447345  0.87266485     1.08100
H848        H  0.44665652  0.91335247  0.80815846     0.39900
O849        O  0.47244428  0.93127699  0.81495009    -1.08400
O850        O  0.53424973  0.01611171  0.82542362    -0.65000
Ni851      Ni  0.47385487  0.98425944  0.81869961     1.26300
O852        O  0.40174376  0.87417738  0.83341748    -0.65300
O853        O  0.48835577  0.00322492  0.79461506    -0.77600
C854        C  0.43677933  0.03349489  0.82802818     0.85900
O855        O  0.47164814  0.03543649  0.82335792    -0.64700
Ni856      Ni  0.51761456  0.93094834  0.80195779     1.27400
Ni857      Ni  0.46144110  0.91209583  0.83906911     1.26100
H858        H  0.48103043  0.98218611  0.85043956     0.40400
O859        O  0.44320016  0.07539899  0.65013771    -0.79500
O860        O  0.64350354  0.21149250  0.65012365    -0.64200
O861        O  0.53214089  0.11196990  0.64228084    -1.10800
C862        C  0.54713044  0.08559630  0.70314660     1.07400
O863        O  0.66540405  0.17201816  0.66427068    -0.77400
O864        O  0.61633468  0.09008486  0.67493614    -0.65000
Ni865      Ni  0.48529492  0.11831057  0.63418036     1.34900
C866        C  0.58966916  0.06083573  0.66467326     0.86100
O867        O  0.59121281  0.18154997  0.62128575    -0.78000
O868        O  0.52127857  0.16028073  0.61674968    -0.88200
C869        C  0.67330348  0.20707183  0.65704433     0.85700
O870        O  0.49394431  0.16341886  0.65016413    -0.66400
O871        O  0.58599393  0.11648816  0.70241560    -0.85700
C872        C  0.52920019  0.19769180  0.65352925     0.86500
C873        C  0.56089640  0.18136061  0.61228577     1.08100
H874        H  0.57067733  0.16133171  0.67656078     0.39900
O875        O  0.57863134  0.14361869  0.66972853    -1.08400
O876        O  0.55554490  0.05930132  0.65891692    -0.65000
Ni877      Ni  0.52677352  0.09050767  0.66586806     1.26300
O878        O  0.56589770  0.20126384  0.65145819    -0.65300
O879        O  0.52208057  0.07082914  0.68983716    -0.77600
C880        C  0.44015998  0.04134609  0.65671986     0.85900
O881        O  0.47316602  0.03925926  0.66105633    -0.64700
Ni882      Ni  0.62400260  0.14399235  0.68280831     1.27400
Ni883      Ni  0.58699334  0.16311462  0.64561782     1.26100
H884        H  0.53564414  0.09326118  0.63408914     0.40400
O885        O  0.07094017  0.44865294  0.83417531    -0.79500
O886        O  0.20682469  0.64872181  0.83460090    -0.64200
O887        O  0.10719411  0.53743481  0.84232750    -1.10800
C888        C  0.08046033  0.55292871  0.78155577     1.07400
O889        O  0.16760577  0.67101223  0.82050225    -0.77400
O890        O  0.08548711  0.62214758  0.81006247    -0.65000
Ni891      Ni  0.11329954  0.49041884  0.85040034     1.34900
C892        C  0.05609283  0.59519917  0.82019814     0.86100
O893        O  0.17679604  0.59623267  0.86336622    -0.78000
O894        O  0.15471478  0.52613172  0.86804157    -0.88200
C895        C  0.20258610  0.67866103  0.82772110     0.85700
O896        O  0.15894856  0.49926360  0.83469275    -0.66400
O897        O  0.11120507  0.59186612  0.78233673    -0.85700
C898        C  0.19306412  0.53455415  0.83120283     0.86500
C899        C  0.17608818  0.56577380  0.87245633     1.08100
H900        H  0.15653078  0.57629367  0.80805041     0.39900
O901        O  0.13882506  0.58416941  0.81493201    -1.08400
O902        O  0.05443147  0.56088976  0.82579235    -0.65000
Ni903      Ni  0.08571380  0.53224472  0.81876318     1.26300
O904        O  0.19644444  0.57119892  0.83311117    -0.65300
O905        O  0.06597394  0.52768486  0.79481528    -0.77600
C906        C  0.03675568  0.44554978  0.82771015     0.85900
O907        O  0.03451405  0.47856576  0.82354648    -0.64700
Ni908      Ni  0.13916214  0.62969997  0.80196764     1.27400
Ni909      Ni  0.15835974  0.59226534  0.83904366     1.26100
H910        H  0.08851561  0.54094999  0.85053202     0.40400
O911        O  0.99468837  0.40993033  0.64964925    -0.79500
O912        O  0.85887967  0.47374234  0.64988486    -0.64200
O913        O  0.95835054  0.46241406  0.64219540    -1.10800
C914        C  0.98325108  0.50311180  0.70324337     1.07400
O915        O  0.89890486  0.53561899  0.66380709    -0.77400
O916        O  0.98041945  0.56850759  0.67495728    -0.65000
Ni917      Ni  0.95194677  0.40930709  0.63379129     1.34900
C918        C  0.00987054  0.57115314  0.66487290     0.86100
O919        O  0.88912949  0.45198568  0.62108842    -0.78000
O920        O  0.91008353  0.40333839  0.61640310    -0.88200
C921        C  0.86360359  0.50822837  0.65672128     0.85700
O922        O  0.90676743  0.37233237  0.64967998    -0.66400
O923        O  0.95276044  0.51138655  0.70232748    -0.85700
C924        C  0.87250558  0.37303396  0.65304660     0.86500
C925        C  0.88913978  0.42186325  0.61202749     1.08100
H926        H  0.90825581  0.45107390  0.67636623     0.39900
O927        O  0.92629432  0.47684803  0.66958447    -1.08400
O928        O  0.01123185  0.53842925  0.65916261    -0.65000
Ni929      Ni  0.97920591  0.47805119  0.66592237     1.26300
O930        O  0.86897266  0.40619172  0.65109610    -0.65300
O931        O  0.99811125  0.49264981  0.69002978    -0.77600
C932        C  0.02840309  0.44081386  0.65663609     0.85900
O933        O  0.03032197  0.47565837  0.66133631    -0.64700
Ni934      Ni  0.92607680  0.52208857  0.68256035     1.27400
Ni935      Ni  0.90723544  0.46587995  0.64544105     1.26100
H936        H  0.97732145  0.48499115  0.63413743     0.40400
C937        C  0.06012884  0.53694635  0.76476466    -0.17100
C938        C  0.04210128  0.52530305  0.75071294     0.06900
C939        C  0.02071617  0.51414896  0.73427123     0.08800
C940        C  0.00298254  0.50730743  0.72014321    -0.18000
C941        C  0.71723282  0.24181628  0.65673176    -0.17100
C942        C  0.75461613  0.26970312  0.65769404     0.06900
C943        C  0.79816315  0.30300531  0.65860997     0.08800
C944        C  0.83410610  0.33374202  0.65767917    -0.18000
C945        C  0.53110893  0.06535168  0.71993329    -0.17100
C946        C  0.51977887  0.04735926  0.73399512     0.06900
C947        C  0.50921336  0.02595851  0.75041952     0.08800
C948        C  0.50281394  0.00818853  0.76451452    -0.18000
C949        C  0.32921578  0.83941018  0.82711745    -0.17100
C950        C  0.29856612  0.80342899  0.82619861     0.06900
C951        C  0.26537692  0.75986017  0.82713730     0.08800
C952        C  0.23746389  0.72249848  0.82808922    -0.18000
C953        C  0.23150547  0.53417160  0.82642354    -0.17100
C954        C  0.26744449  0.53968869  0.82537352     0.06900
C955        C  0.31086521  0.54984826  0.82628886     0.08800
C956        C  0.34799105  0.55887516  0.82747614    -0.18000
C957        C  0.53712132  0.74179382  0.82751669    -0.17100
C958        C  0.53177483  0.77230235  0.82655040     0.06900
C959        C  0.52163808  0.80554150  0.82727523     0.08800
C960        C  0.51236056  0.83345287  0.82809648    -0.18000
C961        C  0.52868977  0.23606841  0.65832872    -0.17100
C962        C  0.53418361  0.27200651  0.65938721     0.06900
C963        C  0.54444537  0.31547909  0.65848784     0.08800
C964        C  0.55365360  0.35267865  0.65733789    -0.18000
C965        C  0.73717970  0.54195977  0.65756772    -0.17100
C966        C  0.76776810  0.53670327  0.65842265     0.06900
C967        C  0.80105528  0.52663015  0.65751637     0.08800
C968        C  0.82894281  0.51732717  0.65653103    -0.18000
C969        C  0.53108792  0.56484617  0.76468920    -0.17100
C970        C  0.54237315  0.55791839  0.75067627     0.06900
C971        C  0.55352540  0.54715278  0.73436793     0.08800
C972        C  0.56070520  0.53609092  0.72035334    -0.18000
C973        C  0.43030602  0.06951368  0.82492221    -0.17100
C974        C  0.41849155  0.09558957  0.82369679     0.06900
C975        C  0.39807228  0.12069333  0.82396545     0.08800
C976        C  0.37543650  0.13643591  0.82592895    -0.18000
C977        C  0.39792389  0.33857742  0.82639274    -0.17100
C978        C  0.42404702  0.37664284  0.82780547     0.06900
C979        C  0.44918795  0.42238183  0.82764913     0.08800
C980        C  0.46484547  0.46085878  0.82561547    -0.18000
C981        C  0.39522050  0.23348155  0.93066346    -0.17100
C982        C  0.37728674  0.22681627  0.91658395     0.06900
C983        C  0.35566742  0.21591532  0.90018700     0.08800
C984        C  0.33756570  0.20442825  0.88614051    -0.18000
C985        C  0.93378544  0.28045665  0.82525969    -0.17100
C986        C  0.94937776  0.31895837  0.82329943     0.06900
C987        C  0.97451184  0.36471689  0.82315383     0.08800
C988        C  0.00066496  0.40279757  0.82451963    -0.18000
C989        C  0.05085967  0.18255154  0.82294275    -0.17100
C990        C  0.08793106  0.19149558  0.82427089     0.06900
C991        C  0.13129100  0.20153875  0.82532028     0.08800
C992        C  0.16720411  0.20698385  0.82432825    -0.18000
C993        C  0.73204610  0.09988654  0.82608095    -0.17100
C994        C  0.69418824  0.08878224  0.82721860     0.06900
C995        C  0.64856017  0.06938093  0.82683502     0.08800
C996        C  0.60995100  0.04731002  0.82477121    -0.18000
C997        C  0.83915433  0.20516544  0.93028334    -0.17100
C998        C  0.84632433  0.19393262  0.91630642     0.06900
C999        C  0.85739197  0.18294295  0.90002897     0.08800
C1000       C  0.86858710  0.17593965  0.88601006    -0.18000
C1001       C  0.66171845  0.19943033  0.99293527    -0.17100
C1002       C  0.63112549  0.20466316  0.99207428     0.06900
C1003       C  0.59779657  0.21464848  0.99300126     0.08800
C1004       C  0.56987138  0.22387469  0.99402867    -0.18000
C1005       C  0.78898611  0.69422827  0.82638463    -0.17100
C1006       C  0.75037833  0.67208485  0.82435402     0.06900
C1007       C  0.70475418  0.65259577  0.82390528     0.08800
C1008       C  0.66686996  0.64143820  0.82490923    -0.18000
C1009       C  0.88606728  0.90769370  0.82260389    -0.17100
C1010       C  0.87682063  0.93563114  0.82341293     0.06900
C1011       C  0.86684691  0.96899090  0.82411178     0.08800
C1012       C  0.86165725  0.99959588  0.82311307    -0.18000
C1013       C  0.06957074  0.90200698  0.82356322    -0.17100
C1014       C  0.10038621  0.93790282  0.82447956     0.06900
C1015       C  0.13377351  0.98141025  0.82353693     0.08800
C1016       C  0.16172800  0.01876681  0.82256725    -0.18000
C1017       C  0.96840907  0.67198154  0.82592199    -0.17100
C1018       C  0.98024318  0.64595693  0.82730431     0.06900
C1019       C  0.00068793  0.62088632  0.82717405     0.08800
C1020       C  0.02332830  0.60514939  0.82523546    -0.18000
C1021       C  0.56500858  0.40739576  0.99301043    -0.17100
C1022       C  0.60098927  0.43803331  0.99204735     0.06900
C1023       C  0.64453611  0.47127601  0.99295999     0.08800
C1024       C  0.68188635  0.49919513  0.99394115    -0.18000
C1025       C  0.87012273  0.50502064  0.99209939    -0.17100
C1026       C  0.86452799  0.46906465  0.99098645     0.06900
C1027       C  0.85419011  0.42558921  0.99187385     0.08800
C1028       C  0.84500240  0.38841344  0.99304819    -0.18000
C1029       C  0.86779617  0.67620177  0.93081036    -0.17100
C1030       C  0.87936866  0.69435105  0.91678052     0.06900
C1031       C  0.89028482  0.71594907  0.90038640     0.08800
C1032       C  0.89685993  0.73382588  0.88630167    -0.18000
C1033       C  0.86817339  0.00184130  0.72083003    -0.17100
C1034       C  0.88577953  0.02321928  0.73385423     0.06900
C1035       C  0.89961507  0.05111990  0.74879296     0.08800
C1036       C  0.90331685  0.07244220  0.76181157    -0.18000
C1037       C  0.68863334  0.79390469  0.65775635    -0.17100
C1038       C  0.66669481  0.75536515  0.66006113     0.06900
C1039       C  0.64753298  0.70977727  0.66074994     0.08800
C1040       C  0.63665814  0.67193487  0.65989228    -0.18000
C1041       C  0.66735764  0.97405048  0.65781471    -0.17100
C1042       C  0.64112028  0.98570270  0.65683153     0.06900
C1043       C  0.61576988  0.00583829  0.65740493     0.08800
C1044       C  0.59983509  0.02823668  0.65958885    -0.18000
C1045       C  0.67012045  0.87245055  0.55249936    -0.17100
C1046       C  0.68802330  0.88390186  0.56657786     0.06900
C1047       C  0.70940207  0.89449595  0.58301421     0.08800
C1048       C  0.72719840  0.90079619  0.59710314    -0.18000
C1049       C  0.06697947  0.90835165  0.72100568    -0.17100
C1050       C  0.04575725  0.90450895  0.73408083     0.06900
C1051       C  0.01807403  0.89043842  0.74909943     0.08800
C1052       C  0.99687819  0.87272958  0.76215914    -0.18000
C1053       C  0.39741129  0.00518336  0.65980256    -0.17100
C1054       C  0.35928438  0.97909571  0.66099110     0.06900
C1055       C  0.31354651  0.95411693  0.66055974     0.08800
C1056       C  0.27513865  0.93854578  0.65833626    -0.18000
C1057       C  0.04277865  0.61418287  0.65991020    -0.17100
C1058       C  0.06490012  0.65277958  0.65781403     0.06900
C1059       C  0.08427800  0.69839669  0.65724538     0.08800
C1060       C  0.09528420  0.73626995  0.65808762    -0.18000
C1061       C  0.99378003  0.86520425  0.65982563    -0.17100
C1062       C  0.96317105  0.87040305  0.65883772     0.06900
C1063       C  0.92994604  0.88059346  0.65952566     0.08800
C1064       C  0.90217402  0.89008682  0.66032948    -0.18000
C1065       C  0.38404071  0.84914800  0.48996074    -0.17100
C1066       C  0.42132085  0.85852289  0.49094122     0.06900
C1067       C  0.46487001  0.86894187  0.49165548     0.08800
C1068       C  0.50080770  0.87445857  0.49049021    -0.18000
C1069       C  0.20002260  0.84148741  0.55303187    -0.17100
C1070       C  0.18887906  0.84851086  0.56705350     0.06900
C1071       C  0.17808075  0.85960653  0.58335799     0.08800
C1072       C  0.17118318  0.87098609  0.59734884    -0.18000
C1073       C  0.19724602  0.16656640  0.76233286    -0.17100
C1074       C  0.17975425  0.17031758  0.74927861     0.06900
C1075       C  0.16569791  0.18391290  0.73426769     0.08800
C1076       C  0.16167089  0.20112297  0.72117995    -0.18000
C1077       C  0.06449641  0.43440394  0.65968537    -0.17100
C1078       C  0.09072304  0.42275621  0.66083228     0.06900
C1079       C  0.11607593  0.40259693  0.66043740     0.08800
C1080       C  0.13199828  0.38015686  0.65833162    -0.18000
C1081       C  0.20268463  0.17190739  0.65900093    -0.17100
C1082       C  0.19699950  0.13591328  0.65784929     0.06900
C1083       C  0.18646558  0.09235402  0.65863555     0.08800
C1084       C  0.17708816  0.05509983  0.65971582    -0.18000
C1085       C  0.89776318  0.07419645  0.65950986    -0.17100
C1086       C  0.93372141  0.10489897  0.65870419     0.06900
C1087       C  0.97719701  0.13821492  0.65976157     0.08800
C1088       C  0.01450540  0.16619577  0.66078508    -0.18000
C1089       C  0.45648643  0.47013602  0.65951186    -0.17100
C1090       C  0.41805274  0.45453623  0.65734564     0.06900
C1091       C  0.37232216  0.42932792  0.65691207     0.08800
C1092       C  0.33423819  0.40302421  0.65803831    -0.18000
C1093       C  0.21793858  0.57334360  0.48918663    -0.17100
C1094       C  0.20858405  0.60123058  0.48993634     0.06900
C1095       C  0.19873930  0.63471036  0.49064852     0.08800
C1096       C  0.19381359  0.66550988  0.48975531    -0.18000
C1097       C  0.40229094  0.56903768  0.49029210    -0.17100
C1098       C  0.43310269  0.60494521  0.49114135     0.06900
C1099       C  0.46657512  0.64840188  0.49015600     0.08800
C1100       C  0.49461284  0.68571926  0.48918102    -0.18000
C1101       C  0.23025331  0.40024354  0.55306840    -0.17100
C1102       C  0.22367221  0.38260987  0.56721157     0.06900
C1103       C  0.21262188  0.36137446  0.58368766     0.08800
C1104       C  0.20088236  0.34347243  0.59776099    -0.18000
C1105       C  0.53518194  0.33558603  0.05460560    -0.17100
C1106       C  0.55291639  0.35699683  0.06761679     0.06900
C1107       C  0.56708067  0.38492289  0.08256162     0.08800
C1108       C  0.57103758  0.40627595  0.09560755    -0.18000
C1109       C  0.40022111  0.57455344  0.38777901    -0.17100
C1110       C  0.37880720  0.57062249  0.40080806     0.06900
C1111       C  0.35100376  0.55661394  0.41580092     0.08800
C1112       C  0.32977346  0.53904378  0.42887607    -0.18000
C1113       C  0.50512452  0.53855539  0.26400359    -0.17100
C1114       C  0.51229856  0.52754148  0.24997619     0.06900
C1115       C  0.52338317  0.51682886  0.23363961     0.08800
C1116       C  0.53464065  0.50992050  0.21961534    -0.18000
C1117       C  0.86450436  0.49942730  0.09541954    -0.17100
C1118       C  0.84707251  0.50313607  0.08234032     0.06900
C1119       C  0.83316492  0.51685005  0.06732585     0.08800
C1120       C  0.82925870  0.53420900  0.05426420    -0.18000
C1121       C  0.71823487  0.51600068  0.15687465    -0.17100
C1122       C  0.75539907  0.52506507  0.15791874     0.06900
C1123       C  0.79883714  0.53519985  0.15865310     0.08800
C1124       C  0.83474423  0.54067153  0.15747440    -0.18000
C1125       C  0.20224335  0.66910143  0.38774472    -0.17100
C1126       C  0.21973743  0.69041296  0.40080993     0.06900
C1127       C  0.23352265  0.71817113  0.41581476     0.08800
C1128       C  0.23721706  0.73941135  0.42887228    -0.18000
C1129       C  0.06228840  0.56775474  0.26384017    -0.17100
C1130       C  0.04473828  0.56102545  0.24967771     0.06900
C1131       C  0.02368471  0.54994391  0.23316992     0.08800
C1132       C  0.00593065  0.53831045  0.21906809    -0.18000
C1133       C  0.32769967  0.53195132  0.32665612    -0.17100
C1134       C  0.29700622  0.53703512  0.32573651     0.06900
C1135       C  0.26366063  0.54705453  0.32650142     0.08800
C1136       C  0.23584486  0.55648324  0.32736949    -0.18000
C1137       C  0.73453066  0.24089290  0.05421852    -0.17100
C1138       C  0.71334862  0.23715916  0.06730010     0.06900
C1139       C  0.68571197  0.22343112  0.08234143     0.08800
C1140       C  0.66454605  0.20603835  0.09544904    -0.18000
C1141       C  0.82898744  0.35241648  0.15586391    -0.17100
C1142       C  0.80105430  0.31508034  0.15685344     0.06900
C1143       C  0.76782149  0.27155447  0.15784179     0.08800
C1144       C  0.73714010  0.23559656  0.15696039    -0.18000
C1145       C  0.55403692  0.24148025  0.15612708    -0.17100
C1146       C  0.54468055  0.26933821  0.15695334     0.06900
C1147       C  0.53437822  0.30246672  0.15768322     0.08800
C1148       C  0.52891508  0.33290828  0.15673454    -0.18000
C1149       C  0.53011902  0.83225206  0.42858207    -0.17100
C1150       C  0.51278340  0.83618437  0.41551692     0.06900
C1151       C  0.49901707  0.85022643  0.40055612     0.08800
C1152       C  0.49518146  0.86780549  0.38754999    -0.18000
C1153       C  0.34799317  0.83340442  0.32728745    -0.17100
C1154       C  0.31068342  0.80538207  0.32627016     0.06900
C1155       C  0.26727657  0.77182140  0.32527486     0.08800
C1156       C  0.23144371  0.74091138  0.32616304    -0.18000
C1157       C  0.51101740  0.72197027  0.32665949    -0.17100
C1158       C  0.52031745  0.75919749  0.32546577     0.06900
C1159       C  0.53070435  0.80271493  0.32453129     0.08800
C1160       C  0.53626013  0.83868311  0.32558008    -0.18000
C1161       C  0.53443896  0.00863614  0.26393244    -0.17100
C1162       C  0.54606814  0.02659256  0.24987455     0.06900
C1163       C  0.55697301  0.04810196  0.23347292     0.08800
C1164       C  0.56352177  0.06601938  0.21940583    -0.18000
C1165       C  0.13231748  0.79469739  0.15828019    -0.17100
C1166       C  0.11666827  0.75618575  0.16023997     0.06900
C1167       C  0.09152470  0.71042275  0.16041063     0.08800
C1168       C  0.06539250  0.67232236  0.15908404    -0.18000
C1169       C  0.33434157  0.97498735  0.15788984    -0.17100
C1170       C  0.37219954  0.98609403  0.15677158     0.06900
C1171       C  0.41782424  0.00551696  0.15714280     0.08800
C1172       C  0.45643312  0.02759734  0.15919214    -0.18000
C1173       C  0.33137744  0.83332013  0.92959762    -0.17100
C1174       C  0.35265149  0.83717237  0.91654223     0.06900
C1175       C  0.38048551  0.85122859  0.90157687     0.08800
C1176       C  0.40180401  0.86891933  0.88854545    -0.18000
C1177       C  0.00152175  0.73591524  0.99088405    -0.17100
C1178       C  0.03962909  0.76209716  0.98974130     0.06900
C1179       C  0.08535216  0.78721484  0.99023729     0.08800
C1180       C  0.12375334  0.80285130  0.99250396    -0.18000
C1181       C  0.35623919  0.12699410  0.99121447    -0.17100
C1182       C  0.33431915  0.08843057  0.99345082     0.06900
C1183       C  0.31514697  0.04284507  0.99410054     0.08800
C1184       C  0.30418703  0.00498923  0.99322747    -0.18000
C1185       C  0.22765537  0.86951993  0.05356573    -0.17100
C1186       C  0.22065657  0.88094770  0.06752477     0.06900
C1187       C  0.20971299  0.89222409  0.08375515     0.08800
C1188       C  0.19851922  0.89943742  0.09772618    -0.18000
C1189       C  0.69111682  0.93866616  0.15782857    -0.17100
C1190       C  0.66848534  0.95439897  0.15981077     0.06900
C1191       C  0.64803875  0.97946015  0.16014808     0.08800
C1192       C  0.63618428  0.00550311  0.15896787    -0.18000
C1193       C  0.89870941  0.86758611  0.15995680    -0.17100
C1194       C  0.93467931  0.87317536  0.15885238     0.06900
C1195       C  0.97819343  0.88354536  0.15968892     0.08800
C1196       C  0.01540270  0.89276705  0.16080433    -0.18000
C1197       C  0.66795977  0.73634949  0.15788435    -0.17100
C1198       C  0.64190305  0.69825029  0.15649200     0.06900
C1199       C  0.61691661  0.65248747  0.15668758     0.08800
C1200       C  0.60136543  0.61402096  0.15874325    -0.18000
C1201       C  0.53084150  0.73887231  0.92974201    -0.17100
C1202       C  0.51305888  0.71753301  0.91673251     0.06900
C1203       C  0.49899994  0.68971895  0.90177098     0.08800
C1204       C  0.49521023  0.66848240  0.88871648    -0.18000
C1205       C  0.76181220  0.06922578  0.99053496    -0.17100
C1206       C  0.75089697  0.03137366  0.98968038     0.06900
C1207       C  0.73179810  0.98579353  0.99039010     0.08800
C1208       C  0.70995942  0.94725129  0.99271604    -0.18000
C1209       C  0.40480938  0.87537353  0.99077903    -0.17100
C1210       C  0.43533299  0.87003765  0.99172842     0.06900
C1211       C  0.46851523  0.85980560  0.99097691     0.08800
C1212       C  0.49632799  0.85038274  0.99013040    -0.18000
C1213       C  0.73159880  0.76709257  0.99300611    -0.17100
C1214       C  0.75779789  0.75539862  0.99404726     0.06900
C1215       C  0.78312880  0.73523571  0.99351213     0.08800
C1216       C  0.79906994  0.71284248  0.99132532    -0.18000
C1217       C  0.67185351  0.84108216  0.05345925    -0.17100
C1218       C  0.68990243  0.84771198  0.06750444     0.06900
C1219       C  0.71159179  0.85859771  0.08387571     0.08800
C1220       C  0.72965244  0.87013405  0.09792193    -0.18000
C1221       C  0.39935031  0.43368692  0.15917888    -0.17100
C1222       C  0.36153441  0.42280341  0.16017715     0.06900
C1223       C  0.31594010  0.40359770  0.15977604     0.08800
C1224       C  0.27732211  0.38150547  0.15777434    -0.18000
C1225       C  0.18129657  0.16805893  0.16168917    -0.17100
C1226       C  0.19058570  0.14014415  0.16084689     0.06900
C1227       C  0.20042363  0.10668041  0.16006994     0.08800
C1228       C  0.20538000  0.07590959  0.16096550    -0.18000
C1229       C  0.90473301  0.05598746  0.16155689    -0.17100
C1230       C  0.93282802  0.09327009  0.16054724     0.06900
C1231       C  0.96635334  0.13668980  0.15952425     0.08800
C1232       C  0.99718449  0.17258158  0.16036834    -0.18000
C1233       C  0.09754873  0.40284762  0.15784622    -0.17100
C1234       C  0.08595781  0.42906681  0.15648062     0.06900
C1235       C  0.06578223  0.45438886  0.15662943     0.08800
C1236       C  0.04323090  0.47022065  0.15858283    -0.18000
C1237       C  0.20136927  0.57474310  0.88842272    -0.17100
C1238       C  0.21875624  0.57092333  0.90149503     0.06900
C1239       C  0.23270332  0.55720051  0.91649740     0.08800
C1240       C  0.23670310  0.53988822  0.92955541    -0.18000
C1241       C  0.33467169  0.30703627  0.99100470    -0.17100
C1242       C  0.30840911  0.31862873  0.98984360     0.06900
C1243       C  0.28296253  0.33868143  0.99022226     0.08800
C1244       C  0.26698111  0.36106891  0.99231910    -0.18000
C1245       C  0.19635312  0.56942189  0.99174945    -0.17100
C1246       C  0.20204777  0.60541501  0.99290066     0.06900
C1247       C  0.21245879  0.64892446  0.99207761     0.08800
C1248       C  0.22166338  0.68611171  0.99093341    -0.18000
C1249       C  0.50130291  0.66674032  0.99110125    -0.17100
C1250       C  0.46528882  0.63613459  0.99192058     0.06900
C1251       C  0.42174599  0.60298686  0.99084241     0.08800
C1252       C  0.38440549  0.57510299  0.98978915    -0.18000
C1253       C  0.06468774  0.33839831  0.99303457    -0.17100
C1254       C  0.02660794  0.31209878  0.99419490     0.06900
C1255       C  0.98088270  0.28681229  0.99373457     0.08800
C1256       C  0.94246611  0.27112508  0.99148127    -0.18000
C1257       C  0.16974882  0.34080191  0.09763309    -0.17100
C1258       C  0.17629734  0.35843041  0.08349057     0.06900
C1259       C  0.18723207  0.37978385  0.06704033     0.08800
C1260       C  0.19882186  0.39780764  0.05298482    -0.18000
C1261       C  0.53486283  0.24207557  0.55528518    -0.17100
C1262       C  0.55226566  0.23821762  0.56834637     0.06900
C1263       C  0.56610414  0.22432928  0.58333580     0.08800
C1264       C  0.56997170  0.20686915  0.59637648    -0.18000
C1265       C  0.35614302  0.27113658  0.49168065    -0.17100
C1266       C  0.33362522  0.28701146  0.49360534     0.06900
C1267       C  0.31350192  0.31237615  0.49379112     0.08800
C1268       C  0.30194417  0.33863234  0.49250363    -0.18000
C1269       C  0.33362246  0.06904355  0.49169705    -0.17100
C1270       C  0.30751054  0.03094589  0.49036436     0.06900
C1271       C  0.28246244  0.98518895  0.49055319     0.08800
C1272       C  0.26689706  0.94670215  0.49254027    -0.18000
C1273       C  0.19708705  0.07241165  0.26305209    -0.17100
C1274       C  0.17968273  0.05108385  0.24998780     0.06900
C1275       C  0.16608770  0.02332141  0.23499712     0.08800
C1276       C  0.16253012  0.00210927  0.22195350    -0.18000
C1277       C  0.42924823  0.40300344  0.32456473    -0.17100
C1278       C  0.41830052  0.36514932  0.32365490     0.06900
C1279       C  0.39895187  0.31953123  0.32420713     0.08800
C1280       C  0.37683417  0.28095225  0.32635701    -0.18000
C1281       C  0.46557253  0.04658304  0.32424046    -0.17100
C1282       C  0.44967025  0.06900332  0.32645983     0.06900
C1283       C  0.42441405  0.08924669  0.32707364     0.08800
C1284       C  0.39824099  0.10099295  0.32611033    -0.18000
C1285       C  0.33766019  0.17425530  0.38679455    -0.17100
C1286       C  0.35525397  0.18069585  0.40093049     0.06900
C1287       C  0.37630511  0.19130977  0.41742983     0.08800
C1288       C  0.39400642  0.20266471  0.43154644    -0.18000
C1289       C  0.66462076  0.50033362  0.59631874    -0.17100
C1290       C  0.68588959  0.50419625  0.58324675     0.06900
C1291       C  0.71357933  0.51806726  0.56821537     0.08800
C1292       C  0.73478161  0.53554337  0.55512178    -0.18000
C1293       C  0.06488777  0.76688008  0.49241005    -0.17100
C1294       C  0.02704506  0.75591325  0.49346353     0.06900
C1295       C  0.98141219  0.73656820  0.49311550     0.08800
C1296       C  0.94277531  0.71444257  0.49113863    -0.18000
C1297       C  0.57015574  0.38901054  0.49479584    -0.17100
C1298       C  0.59813388  0.42636220  0.49383807     0.06900
C1299       C  0.63148099  0.46989075  0.49288273     0.08800
C1300       C  0.66222508  0.50584751  0.49374035    -0.18000
C1301       C  0.70834489  0.80329197  0.49268162    -0.17100
C1302       C  0.73097222  0.78754315  0.49072072     0.06900
C1303       C  0.75133999  0.76239748  0.49041720     0.08800
C1304       C  0.76307643  0.73625703  0.49161275    -0.18000
C1305       C  0.90400244  0.87310722  0.26286188    -0.17100
C1306       C  0.90017723  0.89062544  0.24983830     0.06900
C1307       C  0.88634224  0.90463394  0.23489615     0.08800
C1308       C  0.86892612  0.90861400  0.22187218    -0.18000
C1309       C  0.00109764  0.64046658  0.32450815    -0.17100
C1310       C  0.97485531  0.65210387  0.32343963     0.06900
C1311       C  0.94948078  0.67222681  0.32392904     0.08800
C1312       C  0.93353510  0.69462664  0.32608493    -0.18000
C1313       C  0.73127187  0.67178815  0.32630784    -0.17100
C1314       C  0.69315338  0.64562675  0.32746479     0.06900
C1315       C  0.64740939  0.62060323  0.32705103     0.08800
C1316       C  0.60898270  0.60507960  0.32489122    -0.18000
C1317       C  0.86505063  0.73232328  0.38653365    -0.17100
C1318       C  0.85334906  0.71440595  0.40059479     0.06900
C1319       C  0.84221474  0.69297073  0.41700995     0.08800
C1320       C  0.83546442  0.67511334  0.43109731    -0.18000
C1321       C  0.16785207  0.00045138  0.32451308    -0.17100
C1322       C  0.13193264  0.96966329  0.32532355     0.06900
C1323       C  0.08846299  0.93628374  0.32426048     0.08800
C1324       C  0.05113730  0.90831704  0.32322675    -0.18000
C1325       C  0.99869330  0.16657528  0.26289832    -0.17100
C1326       C  0.02009401  0.17060064  0.24985912     0.06900
C1327       C  0.04792918  0.18485947  0.23488442     0.08800
C1328       C  0.06921214  0.20262160  0.22184746    -0.18000
C1329       C  0.79014203  0.13616037  0.32559734    -0.17100
C1330       C  0.75173168  0.12064969  0.32340547     0.06900
C1331       C  0.70599045  0.09573261  0.32298933     0.08800
C1332       C  0.66786277  0.06965170  0.32417662    -0.18000
C1333       C  0.96975542  0.33846449  0.32568639    -0.17100
C1334       C  0.98069120  0.37632327  0.32653710     0.06900
C1335       C  0.00006799  0.42194886  0.32602047     0.08800
C1336       C  0.02225786  0.46055740  0.32397285    -0.18000
C1337       C  0.88821644  0.01956299  0.32401882    -0.17100
C1338       C  0.87884183  0.98229528  0.32505732     0.06900
C1339       C  0.86837504  0.93874437  0.32584348     0.08800
C1340       C  0.86276702  0.90276578  0.32474001    -0.18000
C1341       C  0.16295114  0.18438991  0.32340320    -0.17100
C1342       C  0.13520207  0.19391375  0.32421200     0.06900
C1343       C  0.10207149  0.20423728  0.32491569     0.08800
C1344       C  0.07153753  0.20956547  0.32396489    -0.18000
C1345       C  0.86347663  0.40539369  0.59617302    -0.17100
C1346       C  0.84573226  0.38400187  0.58315737     0.06900
C1347       C  0.83162419  0.35618963  0.56817447     0.08800
C1348       C  0.82775525  0.33493843  0.55510342    -0.18000
C1349       C  0.73145906  0.00546670  0.49218589    -0.17100
C1350       C  0.75753319  0.04356154  0.49355188     0.06900
C1351       C  0.78249624  0.08931804  0.49339182     0.08800
C1352       C  0.79801797  0.12780296  0.49142707    -0.18000
C1353       C  0.68114552  0.22580166  0.49382708    -0.17100
C1354       C  0.64390245  0.21655909  0.49287302     0.06900
C1355       C  0.60036980  0.20619617  0.49218810     0.08800
C1356       C  0.56440181  0.20059796  0.49335562    -0.18000
C1357       C  0.87109906  0.40908862  0.49429600    -0.17100
C1358       C  0.86585044  0.43969147  0.49340944     0.06900
C1359       C  0.85564339  0.47292416  0.49410021     0.08800
C1360       C  0.84616207  0.50072581  0.49481588    -0.18000
C1361       C  0.00013399  0.30760706  0.49178609    -0.17100
C1362       C  0.03797217  0.31854280  0.49080654     0.06900
C1363       C  0.08358866  0.33786374  0.49119633     0.08800
C1364       C  0.12221823  0.36001472  0.49316160    -0.18000
C1365       C  0.89410872  0.20370609  0.38653522    -0.17100
C1366       C  0.88722784  0.21495106  0.40056688     0.06900
C1367       C  0.87651321  0.22590454  0.41693096     0.08800
C1368       C  0.86543143  0.23289313  0.43097915    -0.18000
loop_ 
_geom_bond_atom_site_label_1 
_geom_bond_atom_site_label_2 
_geom_bond_distance 
_geom_bond_site_symmetry_2 
_ccdc_geom_bond_type 
O1           Ni7   1.941       .  S
O1           C22   1.273       .  A
O2          Ni25   1.924       .  S
O2           C11   1.271       .  A
O3           Ni7   1.911       .  S
O3          Ni25   1.916       .  S
O3          Ni19   1.914       .  S
O3           H26   0.967       .  S
C4           O21   1.274       .  A
C4           O13   1.273       .  A
C4         C1368   1.431       .  S
O5          Ni24   1.918       .  S
O5           C11   1.267       .  A
O6          Ni24   1.907       .  S
O6            C8   1.268       .  A
Ni7          O10   1.924       .  S
Ni7          O12   1.917       .  S
C8           O18   1.275       .  A
C8         C1352   1.443       .  S
O9          Ni25   1.934       .  S
O9           C15   1.281       .  A
O10          C15   1.274       .  A
C11        C1353   1.437       .  S
O12          C14   1.270       .  A
O13         Ni24   1.917       .  S
C14          O20   1.268       .  A
C14        C1357   1.436       .  S
C15        C1348   1.444       .  S
H16          O17   0.967       .  S
O17         Ni25   1.920       .  S
O17         Ni19   1.901       .  S
O17         Ni24   1.903       .  S
O18         Ni19   1.941       .  S
Ni19         O23   1.913       .  S
Ni19         O21   1.921       .  S
O20         Ni25   1.921       .  S
C22          O23   1.268       .  A
C22        C1361   1.446   1_655  S
O27         Ni33   1.941       .  S
O27          C48   1.273       .  A
O28         Ni51   1.924       .  S
O28          C37   1.272       .  A
O29         Ni33   1.911       .  S
O29         Ni51   1.916       .  S
O29         Ni45   1.914       .  S
O29          H52   0.967       .  S
C30          O47   1.274       .  A
C30          O39   1.273       .  A
C30        C1365   1.431       .  S
O31         Ni50   1.917       .  S
O31          C37   1.266       .  A
O32         Ni50   1.907       .  S
O32          C34   1.267       .  A
Ni33         O36   1.923       .  S
Ni33         O38   1.917   1_655  S
C34          O44   1.275       .  A
C34        C1329   1.443       .  S
O35         Ni51   1.934       .  S
O35          C41   1.281       .  A
O36          C41   1.274       .  A
C37        C1337   1.437       .  S
O38          C40   1.270       .  A
O39         Ni50   1.917       .  S
C40          O46   1.268   1_455  A
C40        C1344   1.436       .  S
C41        C1325   1.444       .  S
H42          O43   0.967       .  S
O43         Ni51   1.920       .  S
O43         Ni45   1.901       .  S
O43         Ni50   1.903       .  S
O44         Ni45   1.941       .  S
Ni45         O49   1.913       .  S
Ni45         O47   1.921       .  S
O46         Ni51   1.921       .  S
C48          O49   1.268       .  A
C48        C1333   1.446       .  S
O53         Ni59   1.940       .  S
O53          C74   1.273       .  A
O54         Ni77   1.922       .  S
O54          C63   1.271   1_655  A
O55         Ni59   1.910       .  S
O55         Ni77   1.916       .  S
O55         Ni71   1.913       .  S
O55          H78   0.967       .  S
C56          O73   1.273       .  A
C56          O65   1.273       .  A
C56        C1317   1.431       .  S
O57         Ni76   1.918       .  S
O57          C63   1.267   1_655  A
O58         Ni76   1.907       .  S
O58          C60   1.268       .  A
Ni59         O62   1.926       .  S
Ni59         O64   1.916       .  S
C60          O70   1.276       .  A
C60        C1312   1.443       .  S
O61         Ni77   1.934       .  S
O61          C67   1.281       .  A
O62          C67   1.275       .  A
C63        C1324   1.435       .  S
O64          C66   1.270       .  A
O65         Ni76   1.917       .  S
C66          O72   1.268       .  A
C66        C1340   1.435       .  S
C67        C1305   1.445       .  S
H68          O69   0.967       .  S
O69         Ni77   1.920       .  S
O69         Ni71   1.900       .  S
O69         Ni76   1.902       .  S
O70         Ni71   1.941       .  S
Ni71         O75   1.912       .  S
Ni71         O73   1.920       .  S
O72         Ni77   1.922       .  S
C74          O75   1.268       .  A
C74        C1313   1.445       .  S
O79         Ni85   1.940       .  S
O79         C100   1.273       .  A
O80        Ni103   1.925       .  S
O80          C89   1.272       .  A
O81         Ni85   1.911       .  S
O81        Ni103   1.917       .  S
O81         Ni97   1.914       .  S
O81         H104   0.967       .  S
C82          O99   1.274       .  A
C82          O91   1.273       .  A
C82        C1320   1.430       .  S
O83        Ni102   1.919       .  S
O83          C89   1.267       .  A
O84        Ni102   1.907       .  S
O84          C86   1.268       .  A
Ni85         O88   1.926       .  S
Ni85         O90   1.914       .  S
C86          O96   1.276       .  A
C86        C1296   1.444       .  S
O87        Ni103   1.932       .  S
O87          C93   1.280       .  A
O88          C93   1.274       .  A
C89        C1360   1.439       .  S
O90          C92   1.269       .  A
O91        Ni102   1.917       .  S
C92          O98   1.269       .  A
C92        C1300   1.433       .  S
C93        C1292   1.444       .  S
H94          O95   0.967       .  S
O95        Ni103   1.918       .  S
O95         Ni97   1.900       .  S
O95        Ni102   1.901       .  S
O96         Ni97   1.942       .  S
Ni97        O101   1.912       .  S
Ni97         O99   1.921       .  S
O98        Ni103   1.922       .  S
C100        O101   1.269       .  A
C100       C1304   1.445       .  S
O105       Ni111   1.939       .  S
O105        C126   1.273       .  A
O106       Ni129   1.924       .  S
O106        C115   1.272       .  A
O107       Ni111   1.911       .  S
O107       Ni129   1.918       .  S
O107       Ni123   1.914       .  S
O107        H130   0.967       .  S
C108        O125   1.274       .  A
C108        O117   1.273       .  A
C108       C1285   1.431       .  S
O109       Ni128   1.918       .  S
O109        C115   1.267       .  A
O110       Ni128   1.907       .  S
O110        C112   1.267       .  A
Ni111       O114   1.925       .  S
Ni111       O116   1.914       .  S
C112        O122   1.276       .  A
C112       C1280   1.444       .  S
O113       Ni129   1.932       .  S
O113        C119   1.280       .  A
O114        C119   1.274       .  A
C115       C1341   1.438       .  S
O116        C118   1.269       .  A
O117       Ni128   1.916       .  S
C118        O124   1.268       .  A
C118       C1321   1.432       .  S
C119       C1273   1.443       .  S
H120        O121   0.967       .  S
O121       Ni129   1.918       .  S
O121       Ni123   1.900       .  S
O121       Ni128   1.901       .  S
O122       Ni123   1.942       .  S
Ni123       O127   1.913       .  S
Ni123       O125   1.921       .  S
O124       Ni129   1.922       .  S
C126        O127   1.269       .  A
C126       C1284   1.445       .  S
O131       Ni137   1.941       .  S
O131        C152   1.274       .  A
O132       Ni155   1.923       .  S
O132        C141   1.271       .  A
O133       Ni137   1.910       .  S
O133       Ni155   1.916       .  S
O133       Ni149   1.913       .  S
O133        H156   0.967       .  S
C134        O151   1.274       .  A
C134        O143   1.273       .  A
C134       C1288   1.431       .  S
O135       Ni154   1.918       .  S
O135        C141   1.267       .  A
O136       Ni154   1.907       .  S
O136        C138   1.268       .  A
Ni137       O140   1.927       .  S
Ni137       O142   1.917       .  S
C138        O148   1.276       .  A
C138       C1265   1.443       .  S
O139       Ni155   1.934       .  S
O139        C145   1.281       .  A
O140        C145   1.275       .  A
C141       C1297   1.436       .  S
O142        C144   1.270       .  A
O143       Ni154   1.917       .  S
C144        O150   1.268       .  A
C144       C1356   1.435       .  S
C145       C1261   1.446       .  S
H146        O147   0.967       .  S
O147       Ni155   1.920       .  S
O147       Ni149   1.900       .  S
O147       Ni154   1.901       .  S
O148       Ni149   1.941       .  S
Ni149       O153   1.912       .  S
Ni149       O151   1.921       .  S
O150       Ni155   1.921       .  S
C152        O153   1.268       .  A
C152       C1269   1.445       .  S
O157       Ni163   1.941       .  S
O157        C178   1.273       .  A
O158       Ni181   1.922       .  S
O158        C167   1.271       .  A
O159       Ni163   1.910       .  S
O159       Ni181   1.915       .  S
O159       Ni175   1.913       .  S
O159        H182   0.967       .  S
C160        O177   1.273       .  A
C160        O169   1.273       .  A
C160       C1260   1.432       .  S
O161       Ni180   1.918   1_556  S
O161        C167   1.267       .  A
O162       Ni180   1.907       .  S
O162        C164   1.268   1_554  A
Ni163       O166   1.926       .  S
Ni163       O168   1.916       .  S
C164        O174   1.276       .  A
C164       C1244   1.443       .  S
O165       Ni181   1.935       .  S
O165        C171   1.282       .  A
O166        C171   1.275       .  A
C167       C1252   1.435       .  S
O168        C170   1.269       .  A
O169       Ni180   1.918       .  S
C170        O176   1.268       .  A
C170       C1245   1.434       .  S
C171       C1240   1.446       .  S
H172        O173   0.967       .  S
O173       Ni181   1.921   1_554  S
O173       Ni175   1.900   1_554  S
O173       Ni180   1.902       .  S
O174       Ni175   1.942       .  S
Ni175       O179   1.911       .  S
Ni175       O177   1.921   1_556  S
O176       Ni181   1.921       .  S
C178        O179   1.268       .  A
C178       C1253   1.445       .  S
O183       Ni189   1.940       .  S
O183        C204   1.273       .  A
O184       Ni207   1.924       .  S
O184        C193   1.272       .  A
O185       Ni189   1.910       .  S
O185       Ni207   1.917       .  S
O185       Ni201   1.915       .  S
O185        H208   0.967       .  S
C186        O203   1.274       .  A
C186        O195   1.273       .  A
C186       C1257   1.432       .  S
O187       Ni206   1.918       .  S
O187        C193   1.267       .  A
O188       Ni206   1.907       .  S
O188        C190   1.267       .  A
Ni189       O192   1.927       .  S
Ni189       O194   1.914       .  S
C190        O200   1.275       .  A
C190       C1224   1.443       .  S
O191       Ni207   1.931       .  S
O191        C197   1.280       .  A
O192        C197   1.275       .  A
C193       C1225   1.438       .  S
O194        C196   1.269       .  A
O195       Ni206   1.917       .  S
C196        O202   1.269       .  A
C196       C1232   1.433   1_455  S
C197       C1328   1.444       .  S
H198        O199   0.967       .  S
O199       Ni207   1.918       .  S
O199       Ni201   1.899       .  S
O199       Ni206   1.901       .  S
O200       Ni201   1.941       .  S
Ni201       O205   1.911       .  S
Ni201       O203   1.922       .  S
O202       Ni207   1.923       .  S
C204        O205   1.268       .  A
C204       C1233   1.445       .  S
O209       Ni215   1.939       .  S
O209        C230   1.273       .  A
O210       Ni233   1.924       .  S
O210        C219   1.272       .  A
O211       Ni215   1.911       .  S
O211       Ni233   1.917       .  S
O211       Ni227   1.913       .  S
O211        H234   0.967       .  S
C212        O229   1.274       .  A
C212        O221   1.273       .  A
C212       C1217   1.431       .  S
O213       Ni232   1.919   1_556  S
O213        C219   1.267       .  A
O214       Ni232   1.907       .  S
O214        C216   1.267   1_554  A
Ni215       O218   1.925       .  S
Ni215       O220   1.913       .  S
C216        O226   1.276       .  A
C216       C1208   1.444       .  S
O217       Ni233   1.931       .  S
O217        C223   1.280       .  A
O218        C223   1.274       .  A
C219       C1212   1.438       .  S
O220        C222   1.269       .  A
O221       Ni232   1.917       .  S
C222        O228   1.268       .  A
C222       C1249   1.432       .  S
C223       C1201   1.443       .  S
H224        O225   0.967       .  S
O225       Ni233   1.919   1_554  S
O225       Ni227   1.900   1_554  S
O225       Ni232   1.902       .  S
O226       Ni227   1.942       .  S
Ni227       O231   1.912       .  S
Ni227       O229   1.921   1_556  S
O228       Ni233   1.921       .  S
C230        O231   1.269       .  A
C230       C1213   1.445       .  S
O235       Ni241   1.941       .  S
O235        C256   1.274       .  A
O236       Ni259   1.922       .  S
O236        C245   1.271   1_565  A
O237       Ni241   1.910       .  S
O237       Ni259   1.916       .  S
O237       Ni253   1.913       .  S
O237        H260   0.967       .  S
C238        O255   1.274       .  A
C238        O247   1.273       .  A
C238       C1220   1.431       .  S
O239       Ni258   1.918   1_545  S
O239        C245   1.267       .  A
O240       Ni258   1.908       .  S
O240        C242   1.268       .  A
Ni241       O244   1.927       .  S
Ni241       O246   1.917       .  S
C242        O252   1.276       .  A
C242       C1189   1.443       .  S
O243       Ni259   1.934       .  S
O243        C249   1.281       .  A
O244        C249   1.275       .  A
C245       C1229   1.435       .  S
O246        C248   1.270       .  A
O247       Ni258   1.918       .  S
C248        O254   1.268       .  A
C248       C1193   1.434       .  S
C249       C1308   1.445       .  S
H250        O251   0.967       .  S
O251       Ni259   1.920       .  S
O251       Ni253   1.899       .  S
O251       Ni258   1.901       .  S
O252       Ni253   1.941       .  S
Ni253       O257   1.911       .  S
Ni253       O255   1.921       .  S
O254       Ni259   1.922       .  S
C256        O257   1.268       .  A
C256       C1197   1.445       .  S
O261       Ni267   1.941       .  S
O261        C282   1.273       .  A
O262       Ni285   1.923       .  S
O262        C271   1.271       .  A
O263       Ni267   1.910       .  S
O263       Ni285   1.915       .  S
O263       Ni279   1.913       .  S
O263        H286   0.967       .  S
C264        O281   1.274       .  A
C264        O273   1.273       .  A
C264       C1185   1.431       .  S
O265       Ni284   1.917   1_556  S
O265        C271   1.266       .  A
O266       Ni284   1.907       .  S
O266        C268   1.267   1_554  A
Ni267       O270   1.924       .  S
Ni267       O272   1.916       .  S
C268        O278   1.275       .  A
C268       C1180   1.443       .  S
O269       Ni285   1.933       .  S
O269        C275   1.281       .  A
O270        C275   1.275       .  A
C271       C1248   1.436       .  S
O272        C274   1.270       .  A
O273       Ni284   1.917       .  S
C274        O280   1.268       .  A
C274       C1209   1.435       .  S
C275       C1173   1.443       .  S
H276        O277   0.967       .  S
O277       Ni285   1.920   1_554  S
O277       Ni279   1.900   1_554  S
O277       Ni284   1.903       .  S
O278       Ni279   1.941       .  S
Ni279       O283   1.912       .  S
Ni279       O281   1.920   1_556  S
O280       Ni285   1.920       .  S
C282        O283   1.268       .  A
C282       C1184   1.446   1_565  S
O287       Ni293   1.941       .  S
O287        C308   1.273       .  A
O288       Ni311   1.924       .  S
O288        C297   1.271       .  A
O289       Ni293   1.911       .  S
O289       Ni311   1.917       .  S
O289       Ni305   1.914       .  S
O289        H312   0.967       .  S
C290        O307   1.274       .  A
C290        O299   1.274       .  A
C290       C1188   1.431       .  S
O291       Ni310   1.917       .  S
O291        C297   1.266       .  A
O292       Ni310   1.907       .  S
O292        C294   1.267       .  A
Ni293       O296   1.924   1_565  S
Ni293       O298   1.916   1_565  S
C294        O304   1.275       .  A
C294       C1165   1.444       .  S
O295       Ni311   1.933       .  S
O295        C301   1.280       .  A
O296        C301   1.274   1_545  A
C297       C1196   1.437       .  S
O298        C300   1.270       .  A
O299       Ni310   1.917       .  S
C300        O306   1.269       .  A
C300       C1228   1.436       .  S
C301       C1276   1.444   1_565  S
H302        O303   0.967       .  S
O303       Ni311   1.920       .  S
O303       Ni305   1.900       .  S
O303       Ni310   1.903       .  S
O304       Ni305   1.942       .  S
Ni305       O309   1.912       .  S
Ni305       O307   1.920       .  S
O306       Ni311   1.922   1_545  S
C308        O309   1.268       .  A
C308       C1169   1.446       .  S
O313       Ni319   1.917       .  S
O313        C334   1.267       .  A
O314       Ni337   1.911   1_545  S
O314        C323   1.268       .  A
O315       Ni319   1.901       .  S
O315       Ni337   1.899       .  S
O315       Ni331   1.920       .  S
O315        H338   0.967       .  S
C316        O333   1.281       .  A
C316        O325   1.275       .  A
C316       C1152   1.446       .  S
O317       Ni336   1.940       .  S
O317        C323   1.274   1_565  A
O318       Ni336   1.916       .  S
O318        C320   1.270       .  A
Ni319       O322   1.917       .  S
Ni319       O324   1.908       .  S
C320        O330   1.268       .  A
C320       C1160   1.435       .  S
O321       Ni337   1.921   1_545  S
O321        C327   1.273   1_545  A
O322        C327   1.273       .  A
C323       C1332   1.445       .  S
O324        C326   1.268   1_565  A
O325       Ni336   1.927       .  S
C326        O332   1.276       .  A
C326       C1281   1.443       .  S
C327       C1161   1.431   1_565  S
H328        O329   0.967       .  S
O329       Ni337   1.913       .  S
O329       Ni331   1.916       .  S
O329       Ni336   1.909       .  S
O330       Ni331   1.923       .  S
Ni331       O335   1.923       .  S
Ni331       O333   1.934       .  S
O332       Ni337   1.941   1_545  S
C334        O335   1.272       .  A
C334       C1153   1.435       .  S
O339       Ni345   1.918       .  S
O339        C360   1.267       .  A
O340       Ni363   1.911       .  S
O340        C349   1.268       .  A
O341       Ni345   1.901       .  S
O341       Ni363   1.900       .  S
O341       Ni357   1.919       .  S
O341        H364   0.967       .  S
C342        O359   1.281       .  A
C342        O351   1.274       .  A
C342       C1140   1.444       .  S
O343       Ni362   1.939       .  S
O343        C349   1.273       .  A
O344       Ni362   1.914       .  S
O344        C346   1.269       .  A
Ni345       O348   1.917       .  S
Ni345       O350   1.907       .  S
C346        O356   1.268       .  A
C346       C1144   1.432       .  S
O347       Ni363   1.921       .  S
O347        C353   1.274       .  A
O348        C353   1.273       .  A
C349       C1192   1.444       .  S
O350        C352   1.268       .  A
O351       Ni362   1.925       .  S
C352        O358   1.276       .  A
C352       C1172   1.443       .  S
C353       C1164   1.431       .  S
H354        O355   0.967       .  S
O355       Ni363   1.913       .  S
O355       Ni357   1.916       .  S
O355       Ni362   1.911       .  S
O356       Ni357   1.921       .  S
Ni357       O361   1.923       .  S
Ni357       O359   1.932       .  S
O358       Ni363   1.942       .  S
C360        O361   1.272       .  A
C360       C1145   1.437       .  S
O365       Ni371   1.918       .  S
O365        C386   1.267       .  A
O366       Ni389   1.912       .  S
O366        C375   1.269       .  A
O367       Ni371   1.900       .  S
O367       Ni389   1.899       .  S
O367       Ni383   1.918       .  S
O367        H390   0.967       .  S
C368        O385   1.280       .  A
C368        O377   1.274       .  A
C368       C1125   1.444       .  S
O369       Ni388   1.939       .  S
O369        C375   1.273       .  A
O370       Ni388   1.914       .  S
O370        C372   1.269       .  A
Ni371       O374   1.916       .  S
Ni371       O376   1.908       .  S
C372        O382   1.269       .  A
C372       C1156   1.433       .  S
O373       Ni389   1.923       .  S
O373        C379   1.275       .  A
O374        C379   1.273       .  A
C375       C1309   1.445       .  S
O376        C378   1.267       .  A
O377       Ni388   1.926       .  S
C378        O384   1.276       .  A
C378       C1336   1.444       .  S
C379       C1129   1.431       .  S
H380        O381   0.967       .  S
O381       Ni389   1.915       .  S
O381       Ni383   1.918       .  S
O381       Ni388   1.910       .  S
O382       Ni383   1.923       .  S
Ni383       O387   1.925       .  S
Ni383       O385   1.932       .  S
O384       Ni389   1.942       .  S
C386        O387   1.272       .  A
C386       C1136   1.438       .  S
O391       Ni397   1.918       .  S
O391        C412   1.267       .  A
O392       Ni415   1.912   1_455  S
O392        C401   1.269       .  A
O393       Ni397   1.902       .  S
O393       Ni415   1.901       .  S
O393       Ni409   1.921       .  S
O393        H416   0.967       .  S
C394        O411   1.281       .  A
C394        O403   1.275       .  A
C394       C1117   1.446       .  S
O395       Ni414   1.941       .  S
O395        C401   1.274   1_655  A
O396       Ni414   1.916       .  S
O396        C398   1.269       .  A
Ni397       O400   1.918       .  S
Ni397       O402   1.907       .  S
C398        O408   1.268       .  A
C398       C1124   1.434       .  S
O399       Ni415   1.921   1_455  S
O399        C405   1.274   1_455  A
O400        C405   1.273       .  A
C401       C1168   1.445       .  S
O402        C404   1.268   1_655  A
O403       Ni414   1.927       .  S
C404        O410   1.276       .  A
C404       C1236   1.443       .  S
C405       C1132   1.432   1_655  S
H406        O407   0.967       .  S
O407       Ni415   1.913       .  S
O407       Ni409   1.915       .  S
O407       Ni414   1.910       .  S
O408       Ni409   1.921       .  S
Ni409       O413   1.921       .  S
Ni409       O411   1.934       .  S
O410       Ni415   1.941   1_455  S
C412        O413   1.271       .  A
C412       C1141   1.435       .  S
O417       Ni423   1.917       .  S
O417        C438   1.266       .  A
O418       Ni441   1.913       .  S
O418        C427   1.268       .  A
O419       Ni423   1.903       .  S
O419       Ni441   1.901       .  S
O419       Ni435   1.921       .  S
O419        H442   0.967       .  S
C420        O437   1.281       .  A
C420        O429   1.274       .  A
C420       C1109   1.444       .  S
O421       Ni440   1.941       .  S
O421        C427   1.273       .  A
O422       Ni440   1.916       .  S
O422        C424   1.270       .  A
Ni423       O426   1.917       .  S
Ni423       O428   1.907       .  S
C424        O434   1.269       .  A
C424       C1133   1.436       .  S
O425       Ni441   1.922       .  S
O425        C431   1.274       .  A
O426        C431   1.273       .  A
C427       C1277   1.446       .  S
O428        C430   1.267       .  A
O429       Ni440   1.924       .  S
C430        O436   1.275       .  A
C430       C1316   1.443       .  S
C431       C1113   1.431       .  S
H432        O433   0.967       .  S
O433       Ni441   1.915       .  S
O433       Ni435   1.917       .  S
O433       Ni440   1.911       .  S
O434       Ni435   1.922       .  S
Ni435       O439   1.925       .  S
Ni435       O437   1.934       .  S
O436       Ni441   1.941       .  S
C438        O439   1.272       .  A
C438       C1157   1.437       .  S
O443       Ni449   1.917       .  S
O443        C464   1.266       .  A
O444       Ni467   1.912       .  S
O444        C453   1.268       .  A
O445       Ni449   1.903       .  S
O445       Ni467   1.901       .  S
O445       Ni461   1.921       .  S
O445        H468   0.967       .  S
C446        O463   1.281       .  A
C446        O455   1.274       .  A
C446       C1108   1.444       .  S
O447       Ni466   1.941       .  S
O447        C453   1.273       .  A
O448       Ni466   1.917       .  S
O448        C450   1.270       .  A
Ni449       O452   1.917       .  S
Ni449       O454   1.907       .  S
C450        O460   1.268       .  A
C450       C1148   1.435       .  S
O451       Ni467   1.921       .  S
O451        C457   1.274       .  A
O452        C457   1.273       .  A
C453       C1221   1.446       .  S
O454        C456   1.267       .  A
O455       Ni466   1.923       .  S
C456        O462   1.275       .  A
C456       C1200   1.444       .  S
C457       C1116   1.431       .  S
H458        O459   0.967       .  S
O459       Ni467   1.913       .  S
O459       Ni461   1.915       .  S
O459       Ni466   1.911       .  S
O460       Ni461   1.919       .  S
Ni461       O465   1.923       .  S
Ni461       O463   1.934       .  S
O462       Ni467   1.941       .  S
C464        O465   1.271       .  A
C464       C1121   1.436       .  S
O469       Ni475   1.919       .  S
O469        C490   1.267       .  A
O470       Ni493   1.911       .  S
O470        C479   1.268       .  A
O471       Ni475   1.901       .  S
O471       Ni493   1.899       .  S
O471       Ni487   1.918       .  S
O471        H494   0.967       .  S
C472        O489   1.280       .  A
C472        O481   1.274       .  A
C472       C1112   1.444       .  S
O473       Ni492   1.940       .  S
O473        C479   1.273       .  A
O474       Ni492   1.914       .  S
O474        C476   1.269       .  A
Ni475       O478   1.917       .  S
Ni475       O480   1.908       .  S
C476        O486   1.269       .  A
C476       C1097   1.433       .  S
O477       Ni493   1.922       .  S
O477        C483   1.274       .  A
O478        C483   1.273       .  A
C479       C1268   1.444       .  S
O480        C482   1.268       .  A
O481       Ni492   1.927       .  S
C482        O488   1.275       .  A
C482       C1364   1.443       .  S
C483       C1101   1.432       .  S
H484        O485   0.967       .  S
O485       Ni493   1.914       .  S
O485       Ni487   1.917       .  S
O485       Ni492   1.910       .  S
O486       Ni487   1.923       .  S
Ni487       O491   1.924       .  S
Ni487       O489   1.932       .  S
O488       Ni493   1.941       .  S
C490        O491   1.272       .  A
C490       C1093   1.439       .  S
O495       Ni501   1.918       .  S
O495        C516   1.267       .  A
O496       Ni519   1.911       .  S
O496        C505   1.268       .  A
O497       Ni501   1.902       .  S
O497       Ni519   1.901       .  S
O497       Ni513   1.921       .  S
O497        H520   0.967       .  S
C498        O515   1.282       .  A
C498        O507   1.275       .  A
C498       C1076   1.446       .  S
O499       Ni518   1.941       .  S
O499        C505   1.273       .  A
O500       Ni518   1.916       .  S
O500        C502   1.269       .  A
Ni501       O504   1.918       .  S
Ni501       O506   1.907       .  S
C502        O512   1.268       .  A
C502       C1081   1.434       .  S
O503       Ni519   1.921       .  S
O503        C509   1.273       .  A
O504        C509   1.273       .  A
C505       C1092   1.445       .  S
O506        C508   1.268       .  A
O507       Ni518   1.927       .  S
C508        O514   1.276       .  A
C508       C1080   1.443       .  S
C509       C1104   1.432       .  S
H510        O511   0.967       .  S
O511       Ni519   1.913       .  S
O511       Ni513   1.915       .  S
O511       Ni518   1.910       .  S
O512       Ni513   1.921       .  S
Ni513       O517   1.921       .  S
Ni513       O515   1.935       .  S
O514       Ni519   1.942       .  S
C516        O517   1.271       .  A
C516       C1088   1.435       .  S
O521       Ni527   1.918       .  S
O521        C542   1.266       .  A
O522       Ni545   1.913       .  S
O522        C531   1.268       .  A
O523       Ni527   1.903       .  S
O523       Ni545   1.901       .  S
O523       Ni539   1.920       .  S
O523        H546   0.967       .  S
C524        O541   1.281       .  A
C524        O533   1.274       .  A
C524       C1128   1.444       .  S
O525       Ni544   1.941       .  S
O525        C531   1.273       .  A
O526       Ni544   1.917       .  S
O526        C528   1.270       .  A
Ni527       O530   1.917       .  S
Ni527       O532   1.907       .  S
C528        O538   1.269       .  A
C528       C1096   1.436       .  S
O529       Ni545   1.921       .  S
O529        C535   1.274       .  A
O530        C535   1.273       .  A
C531       C1293   1.446       .  S
O532        C534   1.267       .  A
O533       Ni544   1.924       .  S
C534        O540   1.275       .  A
C534       C1272   1.443       .  S
C535       C1069   1.431       .  S
H536        O537   0.967       .  S
O537       Ni545   1.914       .  S
O537       Ni539   1.917       .  S
O537       Ni544   1.911       .  S
O538       Ni539   1.922       .  S
Ni539       O543   1.924       .  S
Ni539       O541   1.933       .  S
O540       Ni545   1.941       .  S
C542        O543   1.272       .  A
C542       C1065   1.437       .  S
O547       Ni553   1.917   1_545  S
O547        C568   1.266       .  A
O548       Ni571   1.913       .  S
O548        C557   1.268       .  A
O549       Ni553   1.903       .  S
O549       Ni571   1.901       .  S
O549       Ni565   1.920       .  S
O549        H572   0.967       .  S
C550        O567   1.281       .  A
C550        O559   1.275       .  A
C550       C1049   1.444       .  S
O551       Ni570   1.940       .  S
O551        C557   1.273       .  A
O552       Ni570   1.916       .  S
O552        C554   1.270       .  A
Ni553       O556   1.917       .  S
Ni553       O558   1.907       .  S
C554        O564   1.268       .  A
C554       C1061   1.436   1_455  S
O555       Ni571   1.921       .  S
O555        C561   1.274       .  A
O556        C561   1.273       .  A
C557       C1060   1.446       .  S
O558        C560   1.267       .  A
O559       Ni570   1.924       .  S
C560        O566   1.275       .  A
C560       C1056   1.443       .  S
C561       C1072   1.431       .  S
H562        O563   0.967       .  S
O563       Ni571   1.913       .  S
O563       Ni565   1.916       .  S
O563       Ni570   1.910       .  S
O564       Ni565   1.921       .  S
Ni565       O569   1.923       .  S
Ni565       O567   1.934       .  S
O566       Ni571   1.941       .  S
C568        O569   1.271   1_545  A
C568       C1084   1.437       .  S
O573       Ni579   1.918       .  S
O573        C594   1.267       .  A
O574       Ni597   1.911       .  S
O574        C583   1.268       .  A
O575       Ni579   1.901       .  S
O575       Ni597   1.900       .  S
O575       Ni591   1.920       .  S
O575        H598   0.967       .  S
C576        O593   1.281       .  A
C576        O585   1.275       .  A
C576       C1149   1.446       .  S
O577       Ni596   1.941       .  S
O577        C583   1.274       .  A
O578       Ni596   1.917       .  S
O578        C580   1.270       .  A
Ni579       O582   1.917       .  S
Ni579       O584   1.908       .  S
C580        O590   1.268       .  A
C580       C1068   1.435       .  S
O581       Ni597   1.921       .  S
O581        C587   1.274       .  A
O582        C587   1.273       .  A
C583       C1349   1.445   1_565  S
O584        C586   1.268       .  A
O585       Ni596   1.927       .  S
C586        O592   1.275       .  A
C586       C1301   1.443       .  S
C587       C1045   1.431       .  S
H588        O589   0.967       .  S
O589       Ni597   1.913       .  S
O589       Ni591   1.916       .  S
O589       Ni596   1.910       .  S
O590       Ni591   1.922       .  S
Ni591       O595   1.922       .  S
Ni591       O593   1.934       .  S
O592       Ni597   1.940       .  S
C594        O595   1.271       .  A
C594       C1100   1.436       .  S
O599       Ni605   1.919       .  S
O599        C620   1.267       .  A
O600       Ni623   1.912       .  S
O600        C609   1.268       .  A
O601       Ni605   1.902       .  S
O601       Ni623   1.900       .  S
O601       Ni617   1.918       .  S
O601        H624   0.967       .  S
C602        O619   1.280       .  A
C602        O611   1.274   1_565  A
C602       C1033   1.443   1_565  S
O603       Ni622   1.939       .  S
O603        C609   1.273       .  A
O604       Ni622   1.913   1_545  S
O604        C606   1.269       .  A
Ni605       O608   1.917       .  S
Ni605       O610   1.907       .  S
C606        O616   1.268       .  A
C606       C1085   1.432       .  S
O607       Ni623   1.921       .  S
O607        C613   1.274       .  A
O608        C613   1.273       .  A
C609       C1041   1.445       .  S
O610        C612   1.267       .  A
O611       Ni622   1.925   1_545  S
C612        O618   1.275       .  A
C612       C1037   1.444       .  S
C613       C1048   1.431       .  S
H614        O615   0.967       .  S
O615       Ni623   1.913       .  S
O615       Ni617   1.917       .  S
O615       Ni622   1.910       .  S
O616       Ni617   1.921   1_545  S
Ni617       O621   1.924       .  S
Ni617       O619   1.931       .  S
O618       Ni623   1.942       .  S
C620        O621   1.272       .  A
C620       C1064   1.438       .  S
O625       Ni631   1.917       .  S
O625        C646   1.267       .  A
O626       Ni649   1.911       .  S
O626        C635   1.268       .  A
O627       Ni631   1.901       .  S
O627       Ni649   1.900       .  S
O627       Ni643   1.921   1_556  S
O627        H650   0.967       .  S
C628        O645   1.281       .  A
C628        O637   1.275       .  A
C628       C1120   1.446       .  S
O629       Ni648   1.940       .  S
O629        C635   1.273   1_554  A
O630       Ni648   1.916       .  S
O630        C632   1.269   1_554  A
Ni631       O634   1.918       .  S
Ni631       O636   1.908       .  S
C632        O642   1.268       .  A
C632       C1025   1.434       .  S
O633       Ni649   1.921       .  S
O633        C639   1.274       .  A
O634        C639   1.273       .  A
C635       C1177   1.445   1_655  S
O636        C638   1.268       .  A
O637       Ni648   1.927       .  S
C638        O644   1.276       .  A
C638       C1216   1.443       .  S
C639       C1029   1.432       .  S
H640        O641   0.967       .  S
O641       Ni649   1.913   1_554  S
O641       Ni643   1.915       .  S
O641       Ni648   1.910       .  S
O642       Ni643   1.921   1_556  S
Ni643       O647   1.922       .  S
Ni643       O645   1.934       .  S
O644       Ni649   1.941       .  S
C646        O647   1.271   1_556  A
C646       C1024   1.435       .  S
O651       Ni657   1.919       .  S
O651        C672   1.267       .  A
O652       Ni675   1.911       .  S
O652        C661   1.269       .  A
O653       Ni657   1.900       .  S
O653       Ni675   1.898       .  S
O653       Ni669   1.918       .  S
O653        H676   0.967       .  S
C654        O671   1.280       .  A
C654        O663   1.274       .  A
C654       C1052   1.444       .  S
O655       Ni674   1.940       .  S
O655        C661   1.273       .  A
O656       Ni674   1.914   1_455  S
O656        C658   1.269       .  A
Ni657       O660   1.917       .  S
Ni657       O662   1.908       .  S
C658        O668   1.269   1_455  A
C658       C1013   1.433       .  S
O659       Ni675   1.922       .  S
O659        C665   1.274       .  A
O660        C665   1.273       .  A
C661       C1017   1.444       .  S
O662        C664   1.268       .  A
O663       Ni674   1.927       .  S
C664        O670   1.275       .  A
C664       C1005   1.443       .  S
C665       C1032   1.431       .  S
H666        O667   0.967       .  S
O667       Ni675   1.915       .  S
O667       Ni669   1.917       .  S
O667       Ni674   1.910       .  S
O668       Ni669   1.923       .  S
Ni669       O673   1.923       .  S
Ni669       O671   1.931       .  S
O670       Ni675   1.941       .  S
C672        O673   1.272       .  A
C672       C1009   1.437       .  S
O677       Ni683   1.917       .  S
O677        C698   1.266       .  A
O678       Ni701   1.912       .  S
O678        C687   1.268       .  A
O679       Ni683   1.904       .  S
O679       Ni701   1.901       .  S
O679       Ni695   1.921   1_556  S
O679        H702   0.967       .  S
C680        O697   1.281       .  A
C680        O689   1.275       .  A
C680       C1137   1.444       .  S
O681       Ni700   1.941   1_556  S
O681        C687   1.273       .  A
O682       Ni700   1.916       .  S
O682        C684   1.270   1_554  A
Ni683       O686   1.918       .  S
Ni683       O688   1.907       .  S
C684        O694   1.268       .  A
C684       C1001   1.435       .  S
O685       Ni701   1.921       .  S
O685        C691   1.274       .  A
O686        C691   1.273       .  A
C687       C1205   1.446       .  S
O688        C690   1.267       .  A
O689       Ni700   1.924       .  S
C690        O696   1.275       .  A
C690       C1256   1.443       .  S
C691        C997   1.432       .  S
H692        O693   0.967       .  S
O693       Ni701   1.914   1_554  S
O693       Ni695   1.916       .  S
O693       Ni700   1.911       .  S
O694       Ni695   1.920   1_556  S
Ni695       O699   1.923   1_554  S
Ni695       O697   1.934       .  S
O696       Ni701   1.941       .  S
C698        O699   1.271       .  A
C698       C1028   1.436       .  S
O703       Ni709   1.916       .  S
O703        C724   1.266   1_655  A
O704       Ni727   1.912       .  S
O704        C713   1.268       .  A
O705       Ni709   1.903       .  S
O705       Ni727   1.899       .  S
O705       Ni721   1.920       .  S
O705        H728   0.967       .  S
C706        O723   1.280       .  A
C706        O715   1.275       .  A
C706       C1036   1.443       .  S
O707       Ni726   1.941       .  S
O707        C713   1.274       .  A
O708       Ni726   1.916       .  S
O708        C710   1.270       .  A
Ni709       O712   1.917       .  S
Ni709       O714   1.907       .  S
C710        O720   1.268       .  A
C710       C1012   1.435   1_545  S
O711       Ni727   1.921       .  S
O711        C717   1.274       .  A
O712        C717   1.274       .  A
C713        C993   1.446       .  S
O714        C716   1.267       .  A
O715       Ni726   1.925       .  S
C716        O722   1.275       .  A
C716        C985   1.444       .  S
C717       C1000   1.431       .  S
H718        O719   0.967       .  S
O719       Ni727   1.915       .  S
O719       Ni721   1.917       .  S
O719       Ni726   1.911       .  S
O720       Ni721   1.921       .  S
Ni721       O725   1.923       .  S
Ni721       O723   1.932       .  S
O722       Ni727   1.942       .  S
C724        O725   1.271   1_455  A
C724        C989   1.436       .  S
O729       Ni735   1.918       .  S
O729        C750   1.267       .  A
O730       Ni753   1.912       .  S
O730        C739   1.269       .  A
O731       Ni735   1.901       .  S
O731       Ni753   1.899       .  S
O731       Ni747   1.919   1_556  S
O731        H754   0.967       .  S
C732        O749   1.281       .  A
C732        O741   1.275       .  A
C732       C1105   1.444       .  S
O733       Ni752   1.940       .  S
O733        C739   1.273   1_554  A
O734       Ni752   1.914       .  S
O734        C736   1.269   1_554  A
Ni735       O738   1.917       .  S
Ni735       O740   1.907       .  S
C736        O746   1.268       .  A
C736       C1021   1.432       .  S
O737       Ni753   1.922       .  S
O737        C743   1.274       .  A
O738        C743   1.274       .  A
C739       C1241   1.445       .  S
O740        C742   1.267       .  A
O741       Ni752   1.926       .  S
C742        O748   1.276       .  A
C742       C1181   1.443       .  S
C743        C981   1.432       .  S
H744        O745   0.967       .  S
O745       Ni753   1.914   1_554  S
O745       Ni747   1.917       .  S
O745       Ni752   1.910       .  S
O746       Ni747   1.921   1_556  S
Ni747       O751   1.924       .  S
Ni747       O749   1.932       .  S
O748       Ni753   1.942       .  S
C750        O751   1.272   1_556  A
C750       C1004   1.437       .  S
O755       Ni761   1.918       .  S
O755        C776   1.267       .  A
O756       Ni779   1.911       .  S
O756        C765   1.268       .  A
O757       Ni761   1.901       .  S
O757       Ni779   1.900       .  S
O757       Ni773   1.921       .  S
O757        H780   0.967       .  S
C758        O775   1.282       .  A
C758        O767   1.275       .  A
C758       C1073   1.446       .  S
O759       Ni778   1.941       .  S
O759        C765   1.274       .  A
O760       Ni778   1.916       .  S
O760        C762   1.269       .  A
Ni761       O764   1.918       .  S
Ni761       O766   1.908       .  S
C762        O772   1.268       .  A
C762        C992   1.434       .  S
O763       Ni779   1.922       .  S
O763        C769   1.274       .  A
O764        C769   1.273       .  A
C765        C977   1.445       .  S
O766        C768   1.268       .  A
O767       Ni778   1.927       .  S
C768        O774   1.276       .  A
C768        C976   1.443       .  S
C769        C984   1.432       .  S
H770        O771   0.967       .  S
O771       Ni779   1.913       .  S
O771       Ni773   1.915       .  S
O771       Ni778   1.910       .  S
O772       Ni773   1.921       .  S
Ni773       O777   1.923       .  S
Ni773       O775   1.934       .  S
O774       Ni779   1.941       .  S
C776        O777   1.272       .  A
C776       C1016   1.436       .  S
O781       Ni787   1.941       .  S
O781        C802   1.273       .  A
O782       Ni805   1.924       .  S
O782        C791   1.271       .  A
O783       Ni787   1.911       .  S
O783       Ni805   1.917       .  S
O783       Ni799   1.914       .  S
O783        H806   0.967       .  S
C784        O801   1.274       .  A
C784        O793   1.273       .  A
C784        C972   1.431       .  S
O785       Ni804   1.917       .  S
O785        C791   1.266       .  A
O786       Ni804   1.907       .  S
O786        C788   1.267       .  A
Ni787       O790   1.924       .  S
Ni787       O792   1.916       .  S
C788        O798   1.275       .  A
C788       C1089   1.443       .  S
O789       Ni805   1.934       .  S
O789        C795   1.281       .  A
O790        C795   1.274       .  A
C791        C964   1.437       .  S
O792        C794   1.270       .  A
O793       Ni804   1.917       .  S
C794        O800   1.268       .  A
C794        C965   1.436       .  S
C795       C1289   1.445       .  S
H796        O797   0.967       .  S
O797       Ni805   1.921       .  S
O797       Ni799   1.901       .  S
O797       Ni804   1.903       .  S
O798       Ni799   1.941       .  S
Ni799       O803   1.913       .  S
Ni799       O801   1.921       .  S
O800       Ni805   1.921       .  S
C802        O803   1.268       .  A
C802       C1040   1.446       .  S
O807       Ni813   1.941       .  S
O807        C828   1.273       .  A
O808       Ni831   1.922       .  S
O808        C817   1.271       .  A
O809       Ni813   1.911       .  S
O809       Ni831   1.916       .  S
O809       Ni825   1.913       .  S
O809        H832   0.967       .  S
C810        O827   1.274       .  A
C810        O819   1.274       .  A
C810        C969   1.431       .  S
O811       Ni830   1.917       .  S
O811        C817   1.266       .  A
O812       Ni830   1.906       .  S
O812        C814   1.267       .  A
Ni813       O816   1.924       .  S
Ni813       O818   1.916       .  S
C814        O824   1.275       .  A
C814        C980   1.443       .  S
O815       Ni831   1.932       .  S
O815        C821   1.281       .  A
O816        C821   1.275       .  A
C817        C956   1.436       .  S
O818        C820   1.270       .  A
O819       Ni830   1.917       .  S
C820        O826   1.268       .  A
C820        C957   1.435       .  S
C821       C1204   1.443       .  S
H822        O823   0.967       .  S
O823       Ni831   1.920       .  S
O823       Ni825   1.900       .  S
O823       Ni830   1.903       .  S
O824       Ni825   1.941       .  S
Ni825       O829   1.912       .  S
Ni825       O827   1.921       .  S
O826       Ni831   1.920       .  S
C828        O829   1.268       .  A
C828       C1008   1.445       .  S
O833       Ni839   1.939       .  S
O833        C854   1.273   1_565  A
O834       Ni857   1.923       .  S
O834        C843   1.271       .  A
O835       Ni839   1.911       .  S
O835       Ni857   1.917       .  S
O835       Ni851   1.914       .  S
O835        H858   0.967       .  S
C836        O853   1.274   1_565  A
C836        O845   1.273       .  A
C836        C948   1.431   1_565  S
O837       Ni856   1.918       .  S
O837        C843   1.267       .  A
O838       Ni856   1.907       .  S
O838        C840   1.267   1_565  A
Ni839       O842   1.926       .  S
Ni839       O844   1.914       .  S
C840        O850   1.276       .  A
C840        C996   1.444       .  S
O841       Ni857   1.931       .  S
O841        C847   1.280       .  A
O842        C847   1.274       .  A
C843        C960   1.437       .  S
O844        C846   1.269       .  A
O845       Ni856   1.917       .  S
C846        O852   1.268       .  A
C846        C949   1.432       .  S
C847       C1176   1.443       .  S
H848        O849   0.967       .  S
O849       Ni857   1.918       .  S
O849       Ni851   1.899       .  S
O849       Ni856   1.901       .  S
O850       Ni851   1.942   1_545  S
Ni851       O855   1.912   1_565  S
Ni851       O853   1.921   1_565  S
O852       Ni857   1.921       .  S
C854        O855   1.269       .  A
C854        C973   1.445       .  S
O859       Ni865   1.940       .  S
O859        C880   1.273       .  A
O860       Ni883   1.923       .  S
O860        C869   1.272       .  A
O861       Ni865   1.910       .  S
O861       Ni883   1.916       .  S
O861       Ni877   1.913       .  S
O861        H884   0.967       .  S
C862        O879   1.273       .  A
C862        O871   1.273       .  A
C862        C945   1.431       .  S
O863       Ni882   1.917       .  S
O863        C869   1.267       .  A
O864       Ni882   1.908       .  S
O864        C866   1.268       .  A
Ni865       O868   1.927       .  S
Ni865       O870   1.916       .  S
C866        O876   1.276       .  A
C866       C1044   1.443       .  S
O867       Ni883   1.934       .  S
O867        C873   1.282       .  A
O868        C873   1.275       .  A
C869        C941   1.436       .  S
O870        C872   1.269       .  A
O871       Ni882   1.917       .  S
C872        O878   1.268       .  A
C872        C961   1.434       .  S
C873       C1264   1.446       .  S
H874        O875   0.967       .  S
O875       Ni883   1.921       .  S
O875       Ni877   1.900       .  S
O875       Ni882   1.901       .  S
O876       Ni877   1.941       .  S
Ni877       O881   1.911       .  S
Ni877       O879   1.921       .  S
O878       Ni883   1.922       .  S
C880        O881   1.269       .  A
C880       C1053   1.445       .  S
O885       Ni891   1.941       .  S
O885        C906   1.274       .  A
O886       Ni909   1.922       .  S
O886        C895   1.271       .  A
O887       Ni891   1.910       .  S
O887       Ni909   1.915       .  S
O887       Ni903   1.912       .  S
O887        H910   0.967       .  S
C888        O905   1.273       .  A
C888        O897   1.273       .  A
C888        C937   1.432       .  S
O889       Ni908   1.918       .  S
O889        C895   1.267       .  A
O890       Ni908   1.907       .  S
O890        C892   1.268       .  A
Ni891       O894   1.927       .  S
Ni891       O896   1.916       .  S
C892        O902   1.276       .  A
C892       C1020   1.443       .  S
O893       Ni909   1.935       .  S
O893        C899   1.282       .  A
O894        C899   1.275       .  A
C895        C952   1.435       .  S
O896        C898   1.269       .  A
O897       Ni908   1.918       .  S
C898        O904   1.268       .  A
C898        C953   1.434       .  S
C899       C1237   1.446       .  S
H900        O901   0.967       .  S
O901       Ni909   1.921       .  S
O901       Ni903   1.901       .  S
O901       Ni908   1.902       .  S
O902       Ni903   1.941       .  S
Ni903       O907   1.911       .  S
Ni903       O905   1.921       .  S
O904       Ni909   1.921       .  S
C906        O907   1.268       .  A
C906        C988   1.445       .  S
O911       Ni917   1.940       .  S
O911        C932   1.273   1_655  A
O912       Ni935   1.925       .  S
O912        C921   1.272       .  A
O913       Ni917   1.911       .  S
O913       Ni935   1.918       .  S
O913       Ni929   1.915       .  S
O913        H936   0.967       .  S
C914        O931   1.274       .  A
C914        O923   1.273       .  A
C914        C940   1.432   1_655  S
O915       Ni934   1.918       .  S
O915        C921   1.267       .  A
O916       Ni934   1.907       .  S
O916        C918   1.267   1_655  A
Ni917       O920   1.927       .  S
Ni917       O922   1.914       .  S
C918        O928   1.276       .  A
C918       C1057   1.444       .  S
O919       Ni935   1.932       .  S
O919        C925   1.280       .  A
O920        C925   1.274       .  A
C921        C968   1.438       .  S
O922        C924   1.269       .  A
O923       Ni934   1.916       .  S
C924        O930   1.269       .  A
C924        C944   1.433       .  S
C925       C1345   1.444       .  S
H926        O927   0.967       .  S
O927       Ni935   1.919       .  S
O927       Ni929   1.899       .  S
O927       Ni934   1.901       .  S
O928       Ni929   1.942   1_455  S
Ni929       O933   1.912   1_655  S
Ni929       O931   1.923       .  S
O930       Ni935   1.923       .  S
C932        O933   1.269       .  A
C932       C1077   1.445       .  S
C937        C938   1.204       .  T
C938        C939   1.409       .  S
C939        C940   1.204       .  T
C941        C942   1.206       .  T
C942        C943   1.412       .  S
C943        C944   1.205       .  T
C945        C946   1.203       .  T
C946        C947   1.408       .  S
C947        C948   1.203       .  T
C949        C950   1.205       .  T
C950        C951   1.412       .  S
C951        C952   1.206       .  T
C953        C954   1.206       .  T
C954        C955   1.413       .  S
C955        C956   1.207       .  T
C957        C958   1.207       .  T
C958        C959   1.414       .  S
C959        C960   1.207       .  T
C961        C962   1.206       .  T
C962        C963   1.414       .  S
C963        C964   1.207       .  T
C965        C966   1.207       .  T
C966        C967   1.415       .  S
C967        C968   1.208       .  T
C969        C970   1.203       .  T
C970        C971   1.408       .  S
C971        C972   1.203       .  T
C973        C974   1.211       .  T
C974        C975   1.421       .  S
C975        C976   1.211       .  T
C977        C978   1.211       .  T
C978        C979   1.421       .  S
C979        C980   1.211       .  T
C981        C982   1.204       .  T
C982        C983   1.409       .  S
C983        C984   1.204       .  T
C985        C986   1.211       .  T
C986        C987   1.421       .  S
C987        C988   1.212   1_655  T
C989        C990   1.206       .  T
C990        C991   1.413       .  S
C991        C992   1.206       .  T
C993        C994   1.212       .  T
C994        C995   1.422       .  S
C995        C996   1.211       .  T
C997        C998   1.204       .  T
C998        C999   1.408       .  S
C999       C1000   1.203       .  T
C1001      C1002   1.207       .  T
C1002      C1003   1.414       .  S
C1003      C1004   1.207       .  T
C1005      C1006   1.211       .  T
C1006      C1007   1.421       .  S
C1007      C1008   1.212       .  T
C1009      C1010   1.207       .  T
C1010      C1011   1.414       .  S
C1011      C1012   1.207       .  T
C1013      C1014   1.205       .  T
C1014      C1015   1.412       .  S
C1015      C1016   1.206   1_565  T
C1017      C1018   1.211       .  T
C1018      C1019   1.421   1_655  S
C1019      C1020   1.211       .  T
C1021      C1022   1.205       .  T
C1022      C1023   1.412       .  S
C1023      C1024   1.206       .  T
C1025      C1026   1.206       .  T
C1026      C1027   1.413       .  S
C1027      C1028   1.207       .  T
C1029      C1030   1.204       .  T
C1030      C1031   1.409       .  S
C1031      C1032   1.204       .  T
C1033      C1034   1.212       .  T
C1034      C1035   1.422       .  S
C1035      C1036   1.212       .  T
C1037      C1038   1.211       .  T
C1038      C1039   1.422       .  S
C1039      C1040   1.212       .  T
C1041      C1042   1.211       .  T
C1042      C1043   1.421   1_565  S
C1043      C1044   1.211       .  T
C1045      C1046   1.203       .  T
C1046      C1047   1.408       .  S
C1047      C1048   1.203       .  T
C1049      C1050   1.212       .  T
C1050      C1051   1.423       .  S
C1051      C1052   1.212   1_455  T
C1053      C1054   1.211   1_545  T
C1054      C1055   1.421       .  S
C1055      C1056   1.211       .  T
C1057      C1058   1.211       .  T
C1058      C1059   1.422       .  S
C1059      C1060   1.212       .  T
C1061      C1062   1.207       .  T
C1062      C1063   1.415       .  S
C1063      C1064   1.208       .  T
C1065      C1066   1.207       .  T
C1066      C1067   1.414       .  S
C1067      C1068   1.206       .  T
C1069      C1070   1.203       .  T
C1070      C1071   1.408       .  S
C1071      C1072   1.203       .  T
C1073      C1074   1.214       .  T
C1074      C1075   1.425       .  S
C1075      C1076   1.213       .  T
C1077      C1078   1.212       .  T
C1078      C1079   1.421       .  S
C1079      C1080   1.211       .  T
C1081      C1082   1.206       .  T
C1082      C1083   1.413       .  S
C1083      C1084   1.207       .  T
C1085      C1086   1.205       .  T
C1086      C1087   1.411       .  S
C1087      C1088   1.206   1_655  T
C1089      C1090   1.211       .  T
C1090      C1091   1.421       .  S
C1091      C1092   1.211       .  T
C1093      C1094   1.208       .  T
C1094      C1095   1.415       .  S
C1095      C1096   1.207       .  T
C1097      C1098   1.205       .  T
C1098      C1099   1.412       .  S
C1099      C1100   1.206       .  T
C1101      C1102   1.204       .  T
C1102      C1103   1.409       .  S
C1103      C1104   1.204       .  T
C1105      C1106   1.212       .  T
C1106      C1107   1.423       .  S
C1107      C1108   1.212       .  T
C1109      C1110   1.213       .  T
C1110      C1111   1.423       .  S
C1111      C1112   1.213       .  T
C1113      C1114   1.204       .  T
C1114      C1115   1.408       .  S
C1115      C1116   1.204       .  T
C1117      C1118   1.213       .  T
C1118      C1119   1.425       .  S
C1119      C1120   1.213       .  T
C1121      C1122   1.207       .  T
C1122      C1123   1.413       .  S
C1123      C1124   1.206       .  T
C1125      C1126   1.213       .  T
C1126      C1127   1.423       .  S
C1127      C1128   1.213       .  T
C1129      C1130   1.203       .  T
C1130      C1131   1.408       .  S
C1131      C1132   1.204       .  T
C1133      C1134   1.207       .  T
C1134      C1135   1.415       .  S
C1135      C1136   1.208       .  T
C1137      C1138   1.213       .  T
C1138      C1139   1.423       .  S
C1139      C1140   1.212       .  T
C1141      C1142   1.206       .  T
C1142      C1143   1.412       .  S
C1143      C1144   1.205       .  T
C1145      C1146   1.207       .  T
C1146      C1147   1.414       .  S
C1147      C1148   1.207       .  T
C1149      C1150   1.213       .  T
C1150      C1151   1.425       .  S
C1151      C1152   1.213       .  T
C1153      C1154   1.206       .  T
C1154      C1155   1.412       .  S
C1155      C1156   1.205       .  T
C1157      C1158   1.207       .  T
C1158      C1159   1.414       .  S
C1159      C1160   1.206       .  T
C1161      C1162   1.203       .  T
C1162      C1163   1.408       .  S
C1163      C1164   1.203       .  T
C1165      C1166   1.211       .  T
C1166      C1167   1.421       .  S
C1167      C1168   1.212       .  T
C1169      C1170   1.212       .  T
C1170      C1171   1.421   1_565  S
C1171      C1172   1.211       .  T
C1173      C1174   1.212       .  T
C1174      C1175   1.422       .  S
C1175      C1176   1.212       .  T
C1177      C1178   1.211       .  T
C1178      C1179   1.421       .  S
C1179      C1180   1.211       .  T
C1181      C1182   1.211       .  T
C1182      C1183   1.421       .  S
C1183      C1184   1.212       .  T
C1185      C1186   1.203       .  T
C1186      C1187   1.408       .  S
C1187      C1188   1.203       .  T
C1189      C1190   1.211       .  T
C1190      C1191   1.420       .  S
C1191      C1192   1.211   1_565  T
C1193      C1194   1.206       .  T
C1194      C1195   1.414       .  S
C1195      C1196   1.207   1_655  T
C1197      C1198   1.212       .  T
C1198      C1199   1.421       .  S
C1199      C1200   1.211       .  T
C1201      C1202   1.212       .  T
C1202      C1203   1.422       .  S
C1203      C1204   1.212       .  T
C1205      C1206   1.212       .  T
C1206      C1207   1.422   1_545  S
C1207      C1208   1.211       .  T
C1209      C1210   1.207       .  T
C1210      C1211   1.415       .  S
C1211      C1212   1.207       .  T
C1213      C1214   1.211       .  T
C1214      C1215   1.421       .  S
C1215      C1216   1.211       .  T
C1217      C1218   1.204       .  T
C1218      C1219   1.409       .  S
C1219      C1220   1.204       .  T
C1221      C1222   1.212       .  T
C1222      C1223   1.421       .  S
C1223      C1224   1.211       .  T
C1225      C1226   1.208       .  T
C1226      C1227   1.415       .  S
C1227      C1228   1.207       .  T
C1229      C1230   1.206       .  T
C1230      C1231   1.412       .  S
C1231      C1232   1.205       .  T
C1233      C1234   1.211       .  T
C1234      C1235   1.421       .  S
C1235      C1236   1.211       .  T
C1237      C1238   1.213       .  T
C1238      C1239   1.425       .  S
C1239      C1240   1.213       .  T
C1241      C1242   1.211       .  T
C1242      C1243   1.421       .  S
C1243      C1244   1.211       .  T
C1245      C1246   1.206       .  T
C1246      C1247   1.413       .  S
C1247      C1248   1.207       .  T
C1249      C1250   1.205       .  T
C1250      C1251   1.411       .  S
C1251      C1252   1.206       .  T
C1253      C1254   1.211       .  T
C1254      C1255   1.421   1_455  S
C1255      C1256   1.211       .  T
C1257      C1258   1.204       .  T
C1258      C1259   1.409       .  S
C1259      C1260   1.204       .  T
C1261      C1262   1.214       .  T
C1262      C1263   1.425       .  S
C1263      C1264   1.214       .  T
C1265      C1266   1.211       .  T
C1266      C1267   1.420       .  S
C1267      C1268   1.211       .  T
C1269      C1270   1.212       .  T
C1270      C1271   1.421   1_545  S
C1271      C1272   1.211       .  T
C1273      C1274   1.212       .  T
C1274      C1275   1.423       .  S
C1275      C1276   1.212       .  T
C1277      C1278   1.212       .  T
C1278      C1279   1.422       .  S
C1279      C1280   1.211       .  T
C1281      C1282   1.211       .  T
C1282      C1283   1.421       .  S
C1283      C1284   1.212       .  T
C1285      C1286   1.203       .  T
C1286      C1287   1.408       .  S
C1287      C1288   1.203       .  T
C1289      C1290   1.213       .  T
C1290      C1291   1.424       .  S
C1291      C1292   1.213       .  T
C1293      C1294   1.212       .  T
C1294      C1295   1.422   1_455  S
C1295      C1296   1.211       .  T
C1297      C1298   1.206       .  T
C1298      C1299   1.413       .  S
C1299      C1300   1.205       .  T
C1301      C1302   1.211       .  T
C1302      C1303   1.421       .  S
C1303      C1304   1.211       .  T
C1305      C1306   1.213       .  T
C1306      C1307   1.424       .  S
C1307      C1308   1.213       .  T
C1309      C1310   1.211   1_455  T
C1310      C1311   1.421       .  S
C1311      C1312   1.211       .  T
C1313      C1314   1.211       .  T
C1314      C1315   1.421       .  S
C1315      C1316   1.211       .  T
C1317      C1318   1.203       .  T
C1318      C1319   1.408       .  S
C1319      C1320   1.203       .  T
C1321      C1322   1.205   1_545  T
C1322      C1323   1.412       .  S
C1323      C1324   1.206       .  T
C1325      C1326   1.212   1_655  T
C1326      C1327   1.423       .  S
C1327      C1328   1.212       .  T
C1329      C1330   1.211       .  T
C1330      C1331   1.421       .  S
C1331      C1332   1.211       .  T
C1333      C1334   1.212       .  T
C1334      C1335   1.422   1_655  S
C1335      C1336   1.211       .  T
C1337      C1338   1.207   1_545  T
C1338      C1339   1.414       .  S
C1339      C1340   1.206       .  T
C1341      C1342   1.208       .  T
C1342      C1343   1.415       .  S
C1343      C1344   1.207       .  T
C1345      C1346   1.212       .  T
C1346      C1347   1.423       .  S
C1347      C1348   1.212       .  T
C1349      C1350   1.211       .  T
C1350      C1351   1.421       .  S
C1351      C1352   1.211       .  T
C1353      C1354   1.207       .  T
C1354      C1355   1.414       .  S
C1355      C1356   1.206       .  T
C1357      C1358   1.207       .  T
C1358      C1359   1.416       .  S
C1359      C1360   1.208       .  T
C1361      C1362   1.212       .  T
C1362      C1363   1.421       .  S
C1363      C1364   1.211       .  T
C1365      C1366   1.203       .  T
C1366      C1367   1.408       .  S
C1367      C1368   1.203       .  T
