geometry optimzed in LAMMPS
_audit_creation_date              2020-12-01 
_audit_creation_method            'lammps2cif' 
_symmetry_space_group_name_H-M    'P1' 
_symmetry_Int_Tables_number       1 
_symmetry_cell_setting            triclinic 
loop_ 
_symmetry_equiv_pos_as_xyz 
  x,y,z 
_cell_length_a                    74.2179848 
_cell_length_b                    74.09570623662802 
_cell_length_c                    30.90249607141158 
_cell_angle_alpha                 89.937956734188 
_cell_angle_beta                  90.02676486956717 
_cell_angle_gamma                 120.18315464283387 
loop_ 
_atom_site_label 
_atom_site_type_symbol 
_atom_site_fract_x 
_atom_site_fract_y 
_atom_site_fract_z 
_atom_site_charge 
O1          O  0.31764887  0.87913451  0.42126952    -0.85600
O2          O  0.29729905  0.85456052  0.49103346    -0.82700
C3          C  0.29716236  0.83780262  0.48168336     0.97800
O4          O  0.31378877  0.83713677  0.48325748    -0.82700
O5          O  0.35579692  0.84979338  0.48228132    -0.85400
C6          C  0.36181619  0.85444126  0.44341301     1.02300
O7          O  0.35980633  0.86831168  0.42415089    -0.78100
O8          O  0.35098812  0.89975208  0.40868265    -0.78300
C9          C  0.33241032  0.88929995  0.39515809     1.02300
O10         O  0.34014898  0.91551552  0.47660860    -0.85600
O11         O  0.32317791  0.88980832  0.54748136    -0.82700
C12         C  0.31986262  0.87585843  0.57491195     0.97800
O13         O  0.31892236  0.85906838  0.56304702    -0.82700
O14         O  0.36145532  0.87499512  0.55651134    -0.85300
C15         C  0.37957681  0.88400131  0.54069533     1.02300
O16         O  0.38239407  0.88907206  0.50102049    -0.78200
O17         O  0.37026026  0.91797648  0.48992827    -0.78300
C18         C  0.35921871  0.92639329  0.48710794     1.02300
Cr19       Cr  0.32089467  0.88430931  0.48439484     1.93700
Cr20       Cr  0.33755225  0.85668568  0.51889314     1.93200
Cr21       Cr  0.36414292  0.89277741  0.45794908     1.39100
O22         O  0.34086234  0.87792470  0.48699255    -1.23400
O23         O  0.31905620  0.88125718  0.92118594    -0.85600
O24         O  0.29957922  0.85661449  0.99123676    -0.82700
C25         C  0.29918797  0.83965673  0.98232388     0.97800
O26         O  0.31572805  0.83876998  0.98390367    -0.82700
O27         O  0.35763173  0.85103891  0.98252251    -0.85400
C28         C  0.36297819  0.85457358  0.94327939     1.02300
O29         O  0.36082214  0.86802454  0.92261010    -0.78100
O30         O  0.35231562  0.89963150  0.90494591    -0.78300
C31         C  0.33335620  0.89042470  0.89357207     1.02300
O32         O  0.34288557  0.91730057  0.97623680    -0.85600
O33         O  0.32671038  0.89222427  0.04773510    -0.82700
C34         C  0.32327985  0.87812400  0.07482116     0.97800
O35         O  0.32176624  0.86126691  0.06208309    -0.82700
O36         O  0.36447448  0.87752874  0.05424909    -0.85300
C37         C  0.38248714  0.88654524  0.03764682     1.02300
O38         O  0.38481227  0.89060235  0.99743228    -0.78200
O39         O  0.37349657  0.91983228  0.98313923    -0.78300
C40         C  0.36235064  0.92817844  0.98276328     1.02300
Cr41       Cr  0.32344163  0.88636332  0.98435776     1.93700
Cr42       Cr  0.34000094  0.85864901  0.01819259     1.93200
Cr43       Cr  0.36606142  0.89348837  0.95420498     1.39100
O44         O  0.34317541  0.87956694  0.98530704    -1.23400
O45         O  0.44177439  0.12958384  0.08337748    -0.85600
O46         O  0.44725347  0.15438751  0.01248714    -0.82700
C47         C  0.46363385  0.17145080  0.02206285     0.97800
O48         O  0.48110460  0.17242929  0.02244214    -0.82700
O49         O  0.51074104  0.16004568  0.02758011    -0.85400
C50         C  0.51179852  0.15537734  0.06660778     1.02300
O51         O  0.49563104  0.14179385  0.08563470    -0.78100
O52         O  0.45511517  0.10979772  0.09877997    -0.78300
C53         C  0.44580325  0.11935822  0.11051407     1.02300
O54         O  0.42980359  0.09366169  0.02851051    -0.85600
O55         O  0.43920333  0.11911196  0.95681036    -0.82700
C56         C  0.45006638  0.13323705  0.92981750     0.97800
O57         O  0.46580106  0.14997727  0.94264640    -0.82700
O58         O  0.49234113  0.13446889  0.95345712    -0.85300
C59         C  0.50111614  0.12534418  0.97019310     1.02300
O60         O  0.49888760  0.12087254  0.01016004    -0.78200
O61         O  0.45795926  0.09163371  0.01898531    -0.78300
C62         C  0.43843290  0.08303362  0.01985143     1.02300
Cr63       Cr  0.44135230  0.12469433  0.02019159     1.93700
Cr64       Cr  0.48612793  0.15281500  0.98896114     1.93200
Cr65       Cr  0.47618810  0.11707220  0.05128701     1.39100
O66         O  0.46788162  0.13156117  0.02038532    -1.23400
O67         O  0.44368444  0.12973836  0.58254469    -0.85600
O68         O  0.44771622  0.15333796  0.51089666    -0.82700
C69         C  0.46440321  0.17058841  0.51747387     0.97800
O70         O  0.48184366  0.17152797  0.51600333    -0.82700
O71         O  0.51133280  0.15887053  0.52016766    -0.85400
C72         C  0.51302214  0.15509549  0.55952019     1.02300
O73         O  0.49724949  0.14159374  0.57985448    -0.78100
O74         O  0.45700250  0.10995469  0.59787559    -0.78300
C75         C  0.44830873  0.12006835  0.60986821     1.02300
O76         O  0.42995892  0.09273272  0.52902497    -0.85600
O77         O  0.43793025  0.11711554  0.45691742    -0.82700
C78         C  0.44818282  0.13062799  0.42848640     0.97800
O79         O  0.46454857  0.14738440  0.43882528    -0.82700
O80         O  0.49126329  0.13182765  0.44856058    -0.85300
C81         C  0.50048399  0.12315044  0.46532571     1.02300
O82         O  0.49869256  0.11912126  0.50549791    -0.78200
O83         O  0.45775567  0.09007811  0.51880312    -0.78300
C84         C  0.43824339  0.08173642  0.52082254     1.02300
Cr85       Cr  0.44170306  0.12372513  0.51963824     1.93700
Cr86       Cr  0.48585867  0.15093660  0.48353102     1.93200
Cr87       Cr  0.47692728  0.11622032  0.54829271     1.39100
O88         O  0.46814645  0.13030766  0.51729071    -1.23400
O89         O  0.67887503  0.13128753  0.17931220    -0.85600
O90         O  0.69739695  0.15595960  0.25049847    -0.82700
C91         C  0.69750268  0.17276141  0.24122234     0.97800
O92         O  0.68055870  0.17291324  0.24013630    -0.82700
O93         O  0.63785810  0.15884251  0.23643754    -0.85400
C94         C  0.63211540  0.15412520  0.19753974     1.02300
O95         O  0.63525881  0.14099217  0.17827520    -0.78100
O96         O  0.64584946  0.11076524  0.16326102    -0.78300
C97         C  0.66473470  0.12141750  0.15169982     1.02300
O98         O  0.65595312  0.09441714  0.23393329    -0.85600
O99         O  0.67088136  0.12009638  0.30581775    -0.82700
C100        C  0.67352339  0.13410733  0.33250180     0.97800
O101        O  0.67439835  0.15065533  0.31923762    -0.82700
O102        O  0.63184521  0.13341307  0.30994436    -0.85300
C103        C  0.61395518  0.12367816  0.29305053     1.02300
O104        O  0.61183107  0.11882291  0.25330581    -0.78200
O105        O  0.62495718  0.09068657  0.24209722    -0.78300
C106        C  0.63649667  0.08279502  0.24029284     1.02300
Cr107      Cr  0.67436852  0.12582181  0.24250508     1.93700
Cr108      Cr  0.65615204  0.15250078  0.27393609     1.93200
Cr109      Cr  0.63124087  0.11641395  0.21147662     1.39100
O110        O  0.65390449  0.13154830  0.24245560    -1.23400
O111        O  0.67549127  0.12971536  0.67900778    -0.85600
O112        O  0.69546369  0.15436363  0.74944684    -0.82700
C113        C  0.69580111  0.17119498  0.73972826     0.97800
O114        O  0.67911941  0.17180116  0.73941743    -0.82700
O115        O  0.63694483  0.15882719  0.73575636    -0.85400
C116        C  0.63117394  0.15406975  0.69676667     1.02300
O117        O  0.63321764  0.14006150  0.67824422    -0.78100
O118        O  0.64236148  0.10859407  0.66558505    -0.78300
C119        C  0.66090962  0.11960705  0.65246442     1.02300
O120        O  0.65276783  0.09328285  0.73502275    -0.85600
O121        O  0.66944823  0.11925169  0.80548383    -0.82700
C122        C  0.67280707  0.13344738  0.83226526     0.97800
O123        O  0.67291184  0.14979555  0.81980380    -0.82700
O124        O  0.63051202  0.13365495  0.81070369    -0.85300
C125        C  0.61251120  0.12425510  0.79430837     1.02300
O126        O  0.61008107  0.11947922  0.75458160    -0.78200
O127        O  0.62246376  0.09074401  0.74639096    -0.78300
C128        C  0.63355827  0.08236148  0.74449493     1.02300
Cr129      Cr  0.67191904  0.12454881  0.74224751     1.93700
Cr130      Cr  0.65480693  0.15208355  0.77410711     1.93200
Cr131      Cr  0.62878569  0.11576874  0.71329627     1.39100
O132        O  0.65183675  0.13079589  0.74319737    -1.23400
O133        O  0.55071293  0.87906429  0.33449687    -0.85600
O134        O  0.54557006  0.85428492  0.26416966    -0.82700
C135        C  0.52880897  0.83738724  0.27278744     0.97800
O136        O  0.51156532  0.83685585  0.27159051    -0.82700
O137        O  0.48272725  0.85005020  0.27304304    -0.85400
C138        C  0.48114140  0.85425682  0.31198420     1.02300
O139        O  0.49690303  0.86802573  0.33190252    -0.78100
O140        O  0.53752508  0.89910116  0.34858225    -0.78300
C141        C  0.54627926  0.88911093  0.36122251     1.02300
O142        O  0.56467235  0.91547688  0.27947841    -0.85600
O143        O  0.55531108  0.88995073  0.20791231    -0.82700
C144        C  0.54452221  0.87602350  0.18054793     0.97800
O145        O  0.52861030  0.85933392  0.19267777    -0.82700
O146        O  0.50245267  0.87578926  0.20009551    -0.85300
C147        C  0.49372548  0.88515013  0.21604428     1.02300
O148        O  0.49594161  0.88993733  0.25587168    -0.78200
O149        O  0.53730520  0.91873782  0.26840415    -0.78300
C150        C  0.55682451  0.92676654  0.27014791     1.02300
Cr151      Cr  0.55221487  0.88423346  0.27123508     1.93700
Cr152      Cr  0.50778103  0.85702587  0.23687345     1.93200
Cr153      Cr  0.51763211  0.89288492  0.29907335     1.39100
O154        O  0.52587824  0.87805839  0.26927003    -1.23400
O155        O  0.55006711  0.87887966  0.83440021    -0.85600
O156        O  0.54605455  0.85462853  0.76385578    -0.82700
C157        C  0.52943517  0.83757207  0.77227468     0.97800
O158        O  0.51208637  0.83680566  0.77117244    -0.82700
O159        O  0.48272963  0.84926586  0.77410425    -0.85400
C160        C  0.48137996  0.85367717  0.81310372     1.02300
O161        O  0.49711914  0.86786848  0.83223680    -0.78100
O162        O  0.53738633  0.89939901  0.84768544    -0.78300
C163        C  0.54560852  0.88899922  0.86084291     1.02300
O164        O  0.56392901  0.91552230  0.78007669    -0.85600
O165        O  0.55538805  0.89034137  0.70831296    -0.82700
C166        C  0.54475754  0.87655513  0.68059570     0.97800
O167        O  0.52872322  0.85974915  0.69207777    -0.82700
O168        O  0.50167801  0.87499608  0.70031225    -0.85300
C169        C  0.49249066  0.88385025  0.71638779     1.02300
O170        O  0.49491585  0.88887865  0.75606726    -0.78200
O171        O  0.53627832  0.91799250  0.76692633    -0.78300
C172        C  0.55576184  0.92651202  0.77058040     1.02300
Cr173      Cr  0.55204250  0.88437293  0.77135959     1.93700
Cr174      Cr  0.50770842  0.85669259  0.73685015     1.93200
Cr175      Cr  0.51714764  0.89252193  0.79857649     1.39100
O176        O  0.52561826  0.87784987  0.76900711    -1.23400
O177        O  0.67274421  0.55828757  0.41774488    -0.85600
O178        O  0.69411476  0.55277821  0.35095394    -0.82700
C179        C  0.69479151  0.53655380  0.36199044     0.97800
O180        O  0.67825885  0.51902215  0.36228823    -0.82700
O181        O  0.63632814  0.48927962  0.36521005    -0.85400
C182        C  0.62998465  0.48858585  0.40356133     1.02300
O183        O  0.63122944  0.50464954  0.42046202    -0.78100
O184        O  0.63932082  0.54525355  0.42970334    -0.78300
C185        C  0.65787915  0.55401622  0.44337877     1.02300
O186        O  0.65014333  0.56976093  0.35804606    -0.85600
O187        O  0.66777421  0.55981125  0.29033145    -0.82700
C188        C  0.67123185  0.54862755  0.26476981     0.97800
O189        O  0.67237870  0.53326085  0.27933706    -0.82700
O190        O  0.63013654  0.50632749  0.28758727    -0.85300
C191        C  0.61192285  0.49774047  0.30284084     1.02300
O192        O  0.60890640  0.50042369  0.34202525    -0.78200
O193        O  0.62002804  0.54151272  0.34708184    -0.78300
C194        C  0.63095243  0.56110518  0.34818732     1.02300
Cr195      Cr  0.66991093  0.55838145  0.35417136     1.93700
Cr196      Cr  0.65412584  0.51338597  0.32587346     1.93200
Cr197      Cr  0.62671100  0.52366373  0.38275923     1.39100
O198        O  0.65027064  0.53180387  0.35448204    -1.23400
O199        O  0.67620659  0.55726006  0.91592832    -0.85600
O200        O  0.69472456  0.55241364  0.84249605    -0.82700
C201        C  0.69542926  0.53584987  0.84967944     0.97800
O202        O  0.67874160  0.51840985  0.85073601    -0.82700
O203        O  0.63667252  0.48884402  0.85956423    -0.85400
C204        C  0.63188189  0.48796221  0.89921795     1.02300
O205        O  0.63437720  0.50410308  0.91818447    -0.78100
O206        O  0.64329940  0.54460703  0.93229951    -0.78300
C207        C  0.66219295  0.55298920  0.94382755     1.02300
O208        O  0.65176146  0.57007666  0.86257787    -0.85600
O209        O  0.66682548  0.56094882  0.79033233    -0.82700
C210        C  0.66903455  0.54991100  0.76225958     0.97800
O211        O  0.66991483  0.53394619  0.77348582    -0.82700
O212        O  0.62787747  0.50711604  0.78662524    -0.85300
C213        C  0.61027327  0.49821143  0.80482894     1.02300
O214        O  0.60887653  0.50054981  0.84507178    -0.78200
O215        O  0.62124119  0.54195927  0.85396224    -0.78300
C216        C  0.63239218  0.56155756  0.85425405     1.02300
Cr217      Cr  0.67103999  0.55832466  0.85290191     1.93700
Cr218      Cr  0.65327482  0.51346960  0.82010086     1.93200
Cr219      Cr  0.62867663  0.52352316  0.88509993     1.39100
O220        O  0.65105825  0.53177159  0.85283532    -1.23400
O221        O  0.44158241  0.32475016  0.00701772    -0.85600
O222        O  0.44497334  0.30481542  0.07897068    -0.82700
C223        C  0.46167415  0.30421380  0.07338481     0.97800
O224        O  0.47913078  0.32083510  0.07450572    -0.82700
O225        O  0.50916662  0.36306496  0.07177433    -0.85400
C226        C  0.51137524  0.36875561  0.03253013     1.02300
O227        O  0.49581553  0.36625940  0.01118459    -0.78100
O228        O  0.45592653  0.35805059  0.99172085    -0.78300
C229        C  0.44687882  0.33918187  0.97964007     1.02300
O230        O  0.42829235  0.34873416  0.06028374    -0.85600
O231        O  0.43551195  0.33160046  0.13265396    -0.82700
C232        C  0.44541338  0.32794066  0.16114264     0.97800
O233        O  0.46157067  0.32728970  0.15096413    -0.82700
O234        O  0.48855128  0.36984595  0.14215216    -0.85300
C235        C  0.49822419  0.38778852  0.12534876     1.02300
O236        O  0.49691627  0.39014374  0.08509081    -0.78200
O237        O  0.45655566  0.37898221  0.07033470    -0.78300
C238        C  0.43700542  0.36815036  0.06871648     1.02300
Cr239      Cr  0.43944334  0.32884316  0.06991147     1.93700
Cr240      Cr  0.48325573  0.34535222  0.10716637     1.93200
Cr241      Cr  0.47546928  0.37153999  0.04171416     1.39100
O242        O  0.46602053  0.34853416  0.07275152    -1.23400
O243        O  0.44037457  0.32375370  0.50650631    -0.85600
O244        O  0.44475234  0.30318796  0.57586696    -0.82700
C245        C  0.46138861  0.30286861  0.56721215     0.97800
O246        O  0.47884700  0.31941396  0.56982738    -0.82700
O247        O  0.50888718  0.36135894  0.57191699    -0.85400
C248        C  0.51114118  0.36718783  0.53294377     1.02300
O249        O  0.49568396  0.36499552  0.51177654    -0.78100
O250        O  0.45610129  0.35725539  0.49173256    -0.78300
C251        C  0.44582758  0.33839226  0.47958664     1.02300
O252        O  0.42797786  0.34726017  0.56226364    -0.85600
O253        O  0.43571860  0.32945718  0.63307999    -0.82700
C254        C  0.44570778  0.32529798  0.66043768     0.97800
O255        O  0.46132393  0.32408108  0.64851846    -0.82700
O256        O  0.48848474  0.36708667  0.64317443    -0.85300
C257        C  0.49774548  0.38541246  0.62779478     1.02300
O258        O  0.49644400  0.38835078  0.58763669    -0.78200
O259        O  0.45624305  0.37784558  0.57010873    -0.78300
C260        C  0.43669005  0.36686396  0.56833138     1.02300
Cr261      Cr  0.43908510  0.32730041  0.56982791     1.93700
Cr262      Cr  0.48296303  0.34310039  0.60578033     1.93200
Cr263      Cr  0.47534653  0.37026176  0.54248835     1.39100
O264        O  0.46569826  0.34695554  0.57262160    -1.23400
O265        O  0.55109995  0.68240300  0.26016367    -0.85600
O266        O  0.54605105  0.70324509  0.32909096    -0.82700
C267        C  0.52934048  0.70364537  0.32178667     0.97800
O268        O  0.51194346  0.68702558  0.32328499    -0.82700
O269        O  0.48253239  0.64518115  0.32102255    -0.85400
C270        C  0.48110989  0.63953210  0.28195399     1.02300
O271        O  0.49690306  0.64161735  0.26232308    -0.78100
O272        O  0.53685337  0.64890811  0.24743333    -0.78300
C273        C  0.54656812  0.66759444  0.23412821     1.02300
O274        O  0.56299726  0.65920018  0.31833732    -0.85600
O275        O  0.55476757  0.67720157  0.38728893    -0.82700
C276        C  0.54426818  0.68071654  0.41446193     0.97800
O277        O  0.52834452  0.68137963  0.40247839    -0.82700
O278        O  0.50154351  0.63864118  0.39476966    -0.85300
C279        C  0.49217739  0.62052429  0.37868531     1.02300
O280        O  0.49393147  0.61796242  0.33869270    -0.78200
O281        O  0.53455379  0.62896365  0.32820736    -0.78300
C282        C  0.55410079  0.63975749  0.32656968     1.02300
Cr283      Cr  0.55188103  0.67921031  0.32393621     1.93700
Cr284      Cr  0.50750702  0.66293895  0.35793386     1.93200
Cr285      Cr  0.51631590  0.63621274  0.29624207     1.39100
O286        O  0.52530415  0.65952509  0.32585050    -1.23400
O287        O  0.55089737  0.68383535  0.76047190    -0.85600
O288        O  0.54676444  0.70348136  0.83193900    -0.82700
C289        C  0.53005665  0.70383130  0.82418317     0.97800
O290        O  0.51267715  0.68710868  0.82564940    -0.82700
O291        O  0.48289848  0.64448663  0.82487913    -0.85400
C292        C  0.48065797  0.63826299  0.78601479     1.02300
O293        O  0.49633565  0.64103000  0.76475432    -0.78100
O294        O  0.53661689  0.65045678  0.74538548    -0.78300
C295        C  0.54578821  0.66935300  0.73333228     1.02300
O296        O  0.56463643  0.66043852  0.81317043    -0.85600
O297        O  0.55635903  0.67651907  0.88615806    -0.82700
C298        C  0.54613324  0.67975048  0.91456668     0.97800
O299        O  0.53057693  0.68135979  0.90350292    -0.82700
O300        O  0.50410720  0.63901316  0.89577307    -0.85300
C301        C  0.49503107  0.62093487  0.87973854     1.02300
O302        O  0.49641719  0.61826925  0.83966968    -0.78200
O303        O  0.53677563  0.63007504  0.82424174    -0.78300
C304        C  0.55626133  0.64102314  0.82112431     1.02300
Cr305      Cr  0.55284332  0.67975272  0.82330496     1.93700
Cr306      Cr  0.50890279  0.66296473  0.85974741     1.93200
Cr307      Cr  0.51731994  0.63676537  0.79555900     1.39100
O308        O  0.52634424  0.65985955  0.82582013    -1.23400
O309        O  0.31694984  0.45112956  0.16490123    -0.85600
O310        O  0.29808261  0.45640262  0.09418148    -0.82700
C311        C  0.29768196  0.47284306  0.10423646     0.97800
O312        O  0.31424345  0.49032202  0.10415217    -0.82700
O313        O  0.35610177  0.52014483  0.10776889    -0.85400
C314        C  0.36086711  0.52099811  0.14730162     1.02300
O315        O  0.35793771  0.50471386  0.16632965    -0.78100
O316        O  0.34994063  0.46472291  0.18171016    -0.78300
C317        C  0.33103132  0.45605246  0.19280730     1.02300
O318        O  0.34120954  0.43881523  0.11045060    -0.85600
O319        O  0.32487835  0.44809893  0.03864230    -0.82700
C320        C  0.32122018  0.45871911  0.01179321     0.97800
O321        O  0.32065249  0.47465942  0.02441101    -0.82700
O322        O  0.36306402  0.50105284  0.03496952    -0.85300
C323        C  0.38080729  0.50996750  0.05255066     1.02300
O324        O  0.38282801  0.50779783  0.09259931    -0.78200
O325        O  0.37183912  0.46707642  0.10400828    -0.78300
C326        C  0.36079201  0.44747952  0.10447113     1.02300
Cr327      Cr  0.32165650  0.45035631  0.10194449     1.93700
Cr328      Cr  0.33856884  0.49512058  0.07016994     1.93200
Cr329      Cr  0.36393888  0.48540188  0.13389028     1.39100
O330        O  0.34145837  0.47686421  0.10185130    -1.23400
O331        O  0.31523275  0.44768248  0.66507625    -0.85600
O332        O  0.29620968  0.45420410  0.59554451    -0.82700
C333        C  0.29579625  0.47066307  0.60567359     0.97800
O334        O  0.31258698  0.48793226  0.60804064    -0.82700
O335        O  0.35476444  0.51725927  0.61396542    -0.85400
C336        C  0.36007637  0.51763202  0.65307754     1.02300
O337        O  0.35762244  0.50117868  0.67054605    -0.78100
O338        O  0.34822771  0.46030014  0.68093299    -0.78300
C339        C  0.32934960  0.45192790  0.69260520     1.02300
O340        O  0.33918377  0.43585791  0.60821753    -0.85600
O341        O  0.32323654  0.44673657  0.53827150    -0.82700
C342        C  0.32024919  0.45827191  0.51268922     0.97800
O343        O  0.31940908  0.47376018  0.52726773    -0.82700
O344        O  0.36160913  0.49962550  0.53784912    -0.85300
C345        C  0.37950335  0.50790315  0.55456875     1.02300
O346        O  0.38167388  0.50517110  0.59431835    -0.78200
O347        O  0.36972952  0.46400756  0.60067428    -0.78300
C348        C  0.35857722  0.44444282  0.59986934     1.02300
Cr349      Cr  0.31982846  0.44786263  0.60188081     1.93700
Cr350      Cr  0.33718057  0.49323613  0.57408899     1.93200
Cr351      Cr  0.36256129  0.48198086  0.63447642     1.39100
O352        O  0.33983360  0.47433212  0.60364210    -1.23400
O353        O  0.12346986  0.44930561  0.09335596    -0.85600
O354        O  0.14774185  0.45543755  0.16444135    -0.82700
C355        C  0.16457733  0.47239992  0.15682095     0.97800
O356        O  0.16502789  0.48966003  0.15772691    -0.82700
O357        O  0.15108403  0.51828849  0.15433789    -0.85400
C358        C  0.14737364  0.51990960  0.11498861     1.02300
O359        O  0.13471198  0.50383877  0.09423200    -0.78100
O360        O  0.10413730  0.46292772  0.07608326    -0.78300
C361        C  0.11385535  0.45362865  0.06538246     1.02300
O362        O  0.08675783  0.43560371  0.14723226    -0.85600
O363        O  0.11185387  0.44522299  0.21960284    -0.82700
C364        C  0.12574364  0.45590964  0.24710784     0.97800
O365        O  0.14204586  0.47233136  0.23532725    -0.82700
O366        O  0.12438867  0.49734215  0.22555065    -0.85300
C367        C  0.11496925  0.50579337  0.20860368     1.02300
O368        O  0.11127274  0.50410365  0.16826377    -0.78200
O369        O  0.08348494  0.46322038  0.15444499    -0.78300
C370        C  0.07558583  0.44372256  0.15497794     1.02300
Cr371      Cr  0.11787899  0.44829227  0.15630626     1.93700
Cr372      Cr  0.14418427  0.49297748  0.19056689     1.93200
Cr373      Cr  0.10947580  0.48280228  0.12537359     1.39100
O374        O  0.12385528  0.47464684  0.15710019    -1.23400
O375        O  0.12151500  0.44988533  0.59376725    -0.85600
O376        O  0.14541904  0.45503148  0.66527329    -0.82700
C377        C  0.16259454  0.47163867  0.65737975     0.97800
O378        O  0.16343092  0.48906943  0.65708718    -0.82700
O379        O  0.15097163  0.51855276  0.65066366    -0.85400
C380        C  0.14709274  0.51984863  0.61121617     1.02300
O381        O  0.13355398  0.50383855  0.59156632    -0.78100
O382        O  0.10191491  0.46315669  0.57649934    -0.78300
C383        C  0.11205922  0.45432158  0.56564752     1.02300
O384        O  0.08456673  0.43715152  0.64751524    -0.85600
O385        O  0.10968019  0.44619055  0.71971946    -0.82700
C386        C  0.12371309  0.45674756  0.74703846     0.97800
O387        O  0.14006373  0.47320686  0.73531640    -0.82700
O388        O  0.12432454  0.49970048  0.72331541    -0.85300
C389        C  0.11579656  0.50887368  0.70566699     1.02300
O390        O  0.11160065  0.50656671  0.66556305    -0.78200
O391        O  0.08232539  0.46533724  0.65512378    -0.78300
C392        C  0.07374323  0.44573874  0.65500514     1.02300
Cr393      Cr  0.11572693  0.44894808  0.65657201     1.93700
Cr394      Cr  0.14320887  0.49371219  0.68908659     1.93200
Cr395      Cr  0.10834966  0.48395339  0.62447570     1.39100
O396        O  0.12242028  0.47550780  0.65659735    -1.23400
O397        O  0.12296228  0.68330650  0.49719824    -0.85600
O398        O  0.14676627  0.70308644  0.42525965    -0.82700
C399        C  0.16389142  0.70373090  0.43288599     0.97800
O400        O  0.16470553  0.68712945  0.43321533    -0.82700
O401        O  0.15255161  0.64512965  0.43727514    -0.85400
C402        C  0.14840919  0.63962067  0.47648557     1.02300
O403        O  0.13453022  0.64154781  0.49585590    -0.78100
O404        O  0.10284934  0.64999318  0.51079504    -0.78300
C405        C  0.11317806  0.66864519  0.52389611     1.02300
O406        O  0.08629106  0.65975115  0.44308433    -0.85600
O407        O  0.11140725  0.67639124  0.37076772    -0.82700
C408        C  0.12535440  0.67980117  0.34325910     0.97800
O409        O  0.14194828  0.68032615  0.35475128    -0.82700
O410        O  0.12634315  0.63773044  0.36407941    -0.85300
C411        C  0.11729542  0.61979908  0.38112904     1.02300
O412        O  0.11299196  0.61765127  0.42107953    -0.78200
O413        O  0.08364427  0.62933847  0.43169441    -0.78300
C414        C  0.07528076  0.64048065  0.43397086     1.02300
Cr415      Cr  0.11730548  0.67925384  0.43391935     1.93700
Cr416      Cr  0.14489914  0.66248467  0.39979621     1.93200
Cr417      Cr  0.10954151  0.63639443  0.46267262     1.39100
O418        O  0.12390277  0.65938172  0.43212591    -1.23400
O419        O  0.12286347  0.68573189  0.99688113    -0.85600
O420        O  0.14770982  0.70504806  0.92571217    -0.82700
C421        C  0.16466661  0.70569581  0.93564867     0.97800
O422        O  0.16513390  0.68894065  0.93871436    -0.82700
O423        O  0.15232130  0.64644131  0.94311667    -0.85400
C424        C  0.14696861  0.64027882  0.98171248     1.02300
O425        O  0.13300279  0.64251536  0.99961638    -0.78100
O426        O  0.10232967  0.65244741  0.01134184    -0.78300
C427        C  0.11282129  0.67124714  0.02381791     1.02300
O428        O  0.08652683  0.66218450  0.94195983    -0.85600
O429        O  0.11264799  0.67754772  0.87042975    -0.82700
C430        C  0.12694648  0.68054548  0.84424219     0.97800
O431        O  0.14377690  0.68224734  0.85795170    -0.82700
O432        O  0.12798998  0.64011067  0.86741854    -0.85300
C433        C  0.11793790  0.62196246  0.88305212     1.02300
O434        O  0.11259093  0.61930579  0.92257067    -0.78200
O435        O  0.08391926  0.63184817  0.93105246    -0.78300
C436        C  0.07540443  0.64279739  0.93387799     1.02300
Cr437      Cr  0.11786890  0.68130797  0.93367483     1.93700
Cr438      Cr  0.14588018  0.66436650  0.90423807     1.93200
Cr439      Cr  0.10904089  0.63827307  0.96402994     1.39100
O440        O  0.12429850  0.66131597  0.93422825    -1.23400
O441        O  0.87137159  0.56043848  0.34158907    -0.85600
O442        O  0.84779927  0.55600632  0.41380240    -0.82700
C443        C  0.83053517  0.53914002  0.40792209     0.97800
O444        O  0.82993733  0.52181149  0.40879882    -0.82700
O445        O  0.84291686  0.49261273  0.40287957    -0.85400
C446        C  0.84649383  0.49116652  0.36332382     1.02300
O447        O  0.85966143  0.50714113  0.34303393    -0.78100
O448        O  0.89127913  0.54736884  0.32582197    -0.78300
C449        C  0.88097861  0.55587017  0.31407367     1.02300
O450        O  0.90876290  0.57406099  0.39462063    -0.85600
O451        O  0.88444449  0.56584167  0.46724813    -0.82700
C452        C  0.87113546  0.55527550  0.49578126     0.97800
O453        O  0.85444288  0.53889541  0.48535396    -0.82700
O454        O  0.87039953  0.51251818  0.47397715    -0.85300
C455        C  0.87904843  0.50340756  0.45653515     1.02300
O456        O  0.88249968  0.50508352  0.41618238    -0.78200
O457        O  0.91138581  0.54608317  0.40344129    -0.78300
C458        C  0.91981177  0.56562155  0.40128662     1.02300
Cr459      Cr  0.87763025  0.56225348  0.40448630     1.93700
Cr460      Cr  0.85086998  0.51785868  0.44014106     1.93200
Cr461      Cr  0.88513930  0.52714493  0.37441335     1.39100
O462        O  0.87121382  0.53580252  0.40626445    -1.23400
O463        O  0.87333177  0.55983325  0.84107920    -0.85600
O464        O  0.84715652  0.55386876  0.90907357    -0.82700
C465        C  0.83024386  0.53722380  0.89975740     0.97800
O466        O  0.82954973  0.51986160  0.90039938    -0.82700
O467        O  0.84231449  0.49077278  0.89651049    -0.85400
C468        C  0.84709786  0.49003645  0.85753327     1.02300
O469        O  0.86149793  0.50608604  0.83954338    -0.78100
O470        O  0.89344096  0.54674743  0.82733962    -0.78300
C471        C  0.88367619  0.55570972  0.81458545     1.02300
O472        O  0.90849486  0.57211290  0.89947640    -0.85600
O473        O  0.88158007  0.56199831  0.96806570    -0.82700
C474        C  0.86733744  0.55074431  0.99438871     0.97800
O475        O  0.85085427  0.53498827  0.98099853    -0.82700
O476        O  0.86690566  0.50858959  0.97216925    -0.85300
C477        C  0.87650705  0.50011158  0.95624931     1.02300
O478        O  0.88148367  0.50262727  0.91651533    -0.78200
O479        O  0.91077161  0.54402743  0.90877209    -0.78300
C480        C  0.91925321  0.56362064  0.90854178     1.02300
Cr481      Cr  0.87715248  0.56009536  0.90454683     1.93700
Cr482      Cr  0.84897575  0.51501137  0.93515877     1.93200
Cr483      Cr  0.88568604  0.52557135  0.87516877     1.39100
O484        O  0.87058362  0.53357784  0.90475954    -1.23400
O485        O  0.87268318  0.32637787  0.25333393    -0.85600
O486        O  0.84819557  0.30758522  0.18245993    -0.82700
C487        C  0.83141859  0.30754874  0.19111668     0.97800
O488        O  0.83111245  0.32443970  0.19043820    -0.82700
O489        O  0.84511137  0.36701430  0.19332006    -0.85400
C490        C  0.84912478  0.37250819  0.23248616     1.02300
O491        O  0.86236458  0.36985715  0.25263160    -0.78100
O492        O  0.89265954  0.35952592  0.26959830    -0.78300
C493        C  0.88245427  0.34054024  0.28094897     1.02300
O494        O  0.90927952  0.34910087  0.19917344    -0.85600
O495        O  0.88417880  0.33390699  0.12712150    -0.82700
C496        C  0.87035683  0.33102384  0.09981047     0.97800
O497        O  0.85377585  0.33027930  0.11202869    -0.82700
O498        O  0.87119553  0.37310285  0.12096610    -0.85300
C499        C  0.88086435  0.39114126  0.13741869     1.02300
O500        O  0.88516209  0.39338772  0.17751783    -0.78200
O501        O  0.91324777  0.38030043  0.19120812    -0.78300
C502        C  0.92091428  0.36854021  0.19278243     1.02300
Cr503      Cr  0.87817611  0.33067469  0.19030622     1.93700
Cr504      Cr  0.85177094  0.34876759  0.15675856     1.93200
Cr505      Cr  0.88724217  0.37396733  0.22046284     1.39100
O506        O  0.87243085  0.35114377  0.18942597    -1.23400
O507        O  0.87005714  0.32715157  0.75310299    -0.85600
O508        O  0.84618852  0.30608356  0.68283280    -0.82700
C509        C  0.82897150  0.30565704  0.68784893     0.97800
O510        O  0.82807211  0.32214175  0.68410710    -0.82700
O511        O  0.84083760  0.36425665  0.68580340    -0.85400
C512        C  0.84456359  0.37002040  0.72491641     1.02300
O513        O  0.85810356  0.36813845  0.74580459    -0.78100
O514        O  0.89007055  0.36058339  0.76487782    -0.78300
C515        C  0.87990610  0.34209522  0.77902624     1.02300
O516        O  0.90696109  0.34974120  0.69792357    -0.85600
O517        O  0.88204032  0.33144120  0.62701514    -0.82700
C518        C  0.86859207  0.32800725  0.59836996     0.97800
O519        O  0.85207195  0.32806249  0.60797098    -0.82700
O520        O  0.86778666  0.37091214  0.61429133    -0.85300
C521        C  0.87634870  0.38898926  0.63058939     1.02300
O522        O  0.88021570  0.39144158  0.67073285    -0.78200
O523        O  0.90947484  0.38001712  0.68487931    -0.78300
C524        C  0.91792370  0.36899344  0.68826595     1.02300
Cr525      Cr  0.87582997  0.32998747  0.68982878     1.93700
Cr526      Cr  0.84871341  0.34646872  0.65067287     1.93200
Cr527      Cr  0.88341782  0.37321986  0.71443925     1.39100
O528        O  0.86931699  0.34984210  0.68495347    -1.23400
C529        C  0.91046749  0.36401123  0.96835908    -0.18100
C530        C  0.91144772  0.36600542  0.92329865    -0.20300
C531        C  0.89536955  0.35100747  0.89734987     0.20400
C532        C  0.87821959  0.33367437  0.91690650    -0.03200
C533        C  0.87705410  0.33184144  0.96247535    -0.06300
C534        C  0.89327599  0.34710469  0.98826853     0.20600
C535        C  0.85937939  0.31512248  0.98222245     0.18800
C536        C  0.84344493  0.29996338  0.95620457    -0.17800
C537        C  0.84480636  0.30155431  0.91100571    -0.20000
C538        C  0.86199859  0.31847630  0.89101553     0.20300
C539        C  0.86302434  0.32077292  0.84572777    -0.33000
C540        C  0.87979453  0.33836588  0.82616693     0.01000
C541        C  0.89595319  0.35330268  0.85225961    -0.24300
C542        C  0.89165185  0.34565024  0.03351660    -0.28900
C543        C  0.87365644  0.32964579  0.05325156     0.06700
C544        C  0.85765133  0.31431074  0.02755822    -0.27600
H545        H  0.92297900  0.37591023  0.98768215     0.11400
H546        H  0.92472470  0.37939942  0.90873815     0.12500
H547        H  0.82980815  0.28698815  0.97082544     0.11600
H548        H  0.83220924  0.28974494  0.89168668     0.10800
H549        H  0.85040602  0.30931914  0.82585807     0.16200
H550        H  0.90895461  0.36687507  0.83742816     0.12100
H551        H  0.90376198  0.35771581  0.05337029     0.15000
H552        H  0.84368118  0.30207818  0.04289484     0.14800
C553        C  0.84035025  0.29991113  0.45442585    -0.18100
C554        C  0.84232151  0.30185599  0.40940444    -0.20300
C555        C  0.86141821  0.31626574  0.39045724     0.20400
C556        C  0.87894408  0.32821298  0.41707827    -0.03200
C557        C  0.87705543  0.32594198  0.46249768    -0.06300
C558        C  0.85750379  0.31217580  0.48121230     0.20600
C559        C  0.89445770  0.33822400  0.48919809     0.18800
C560        C  0.91370403  0.35218737  0.47018452    -0.17800
C561        C  0.91548272  0.35470520  0.42520760    -0.20000
C562        C  0.89810625  0.34310040  0.39846243     0.20300
C563        C  0.89933448  0.34664943  0.35364309    -0.33000
C564        C  0.88179804  0.33513367  0.32712942     0.01000
C565        C  0.86307969  0.31954253  0.34554416    -0.24300
C566        C  0.85517867  0.31180393  0.52627049    -0.28900
C567        C  0.87219192  0.32480761  0.55284783     0.06700
C568        C  0.89199195  0.33724459  0.53434403    -0.27600
H569        H  0.82527166  0.28917602  0.46832301     0.11400
H570        H  0.82873824  0.29253451  0.38944091     0.12500
H571        H  0.92722685  0.36168814  0.49018123     0.11600
H572        H  0.93034842  0.36606007  0.41139704     0.10800
H573        H  0.91381714  0.35860198  0.33940953     0.16200
H574        H  0.84949727  0.31077845  0.32516924     0.12100
H575        H  0.83991784  0.30212670  0.54060490     0.15000
H576        H  0.90508479  0.34741869  0.55481997     0.14800
C577        C  0.88446906  0.45913497  0.12500865    -0.18100
C578        C  0.88313240  0.47407970  0.09964856    -0.20300
C579        C  0.88327469  0.47300503  0.05430823     0.20400
C580        C  0.88536415  0.45701892  0.03432937    -0.03200
C581        C  0.88648166  0.44178292  0.05993942    -0.06300
C582        C  0.88580888  0.44275136  0.10547508     0.20600
C583        C  0.88746199  0.42516080  0.03995234     0.18800
C584        C  0.88828484  0.42446910  0.99463719    -0.17800
C585        C  0.88743620  0.43970263  0.96928172    -0.20000
C586        C  0.88564051  0.45584489  0.98877944     0.20300
C587        C  0.88353307  0.47047259  0.96355451    -0.33000
C588        C  0.88072105  0.48603774  0.98321686     0.01000
C589        C  0.88082640  0.48730232  0.02865449    -0.24300
C590        C  0.88552499  0.42682650  0.13062247    -0.28900
C591        C  0.88519796  0.40955265  0.11085873     0.06700
C592        C  0.88669114  0.40908343  0.06553454    -0.27600
H593        H  0.88392342  0.46009662  0.15992906     0.11400
H594        H  0.88164489  0.48629830  0.11552479     0.12500
H595        H  0.88917047  0.41190374  0.97875484     0.11600
H596        H  0.88772421  0.43859419  0.93435585     0.10800
H597        H  0.88329535  0.46924726  0.92857233     0.16200
H598        H  0.87876679  0.49928375  0.04405679     0.12100
H599        H  0.88423255  0.42723863  0.16551478     0.15000
H600        H  0.88658727  0.39588187  0.05015226     0.14800
C601        C  0.82904694  0.41738649  0.86955800    -0.18100
C602        C  0.82923724  0.40027098  0.85116478    -0.20300
C603        C  0.83113053  0.39915289  0.80624267     0.20400
C604        C  0.83198616  0.41503000  0.77939013    -0.03200
C605        C  0.83240337  0.43258730  0.79802974    -0.06300
C606        C  0.83116179  0.43382176  0.84335294     0.20600
C607        C  0.83544040  0.44947447  0.77157674     0.18800
C608        C  0.83655815  0.44799191  0.72650199    -0.17800
C609        C  0.83556360  0.43031587  0.70789842    -0.20000
C610        C  0.83381024  0.41403278  0.73415586     0.20300
C611        C  0.83533656  0.39751718  0.71624622    -0.33000
C612        C  0.83628647  0.38269435  0.74314736     0.01000
C613        C  0.83356221  0.38320134  0.78794787    -0.24300
C614        C  0.83357667  0.45208361  0.86196370    -0.28900
C615        C  0.83844746  0.46959577  0.83615127     0.06700
C616        C  0.83868261  0.46801698  0.79088940    -0.27600
H617        H  0.82814927  0.41819011  0.90444068     0.11400
H618        H  0.82848252  0.38819017  0.87217992     0.12500
H619        H  0.83879912  0.46074845  0.70572085     0.11600
H620        H  0.83704615  0.42977408  0.67310871     0.10800
H621        H  0.83782384  0.39736242  0.68170673     0.16200
H622        H  0.83444030  0.37183784  0.80865224     0.12100
H623        H  0.83365014  0.45331267  0.89693985     0.15000
H624        H  0.84245163  0.48152159  0.77096930     0.14800
C625        C  0.84614083  0.55781819  0.68512607    -0.18100
C626        C  0.84422612  0.55758059  0.64007165    -0.20300
C627        C  0.86088888  0.56079457  0.61342133     0.20400
C628        C  0.87997181  0.56511901  0.63233129    -0.03200
C629        C  0.88174670  0.56487607  0.67785573    -0.06300
C630        C  0.86464776  0.56096964  0.70429661     0.20600
C631        C  0.90026964  0.56759762  0.69678261     0.21200
C632        C  0.91727123  0.57180381  0.67012397    -0.17800
C633        C  0.91566402  0.57248519  0.62503597    -0.20000
C634        C  0.89692905  0.56867097  0.60576438     0.20300
C635        C  0.89446186  0.56722777  0.56053267    -0.33000
C636        C  0.87500603  0.56140110  0.54181880     0.01000
C637        C  0.85846884  0.55872986  0.56833916    -0.24300
C638        C  0.86600372  0.55936305  0.74928764    -0.28900
C639        C  0.88390345  0.56076356  0.76814354     0.06700
C640        C  0.90114022  0.56525615  0.74179518    -0.27600
H641        H  0.83289929  0.55486805  0.70497072     0.11400
H642        H  0.82953306  0.55441345  0.62605725     0.12500
H643        H  0.93167962  0.57413608  0.68409601     0.11600
H644        H  0.92886396  0.57531188  0.60517710     0.10800
H645        H  0.90718183  0.56911384  0.54012442     0.16200
H646        H  0.84349277  0.55433156  0.55389480     0.12100
H647        H  0.85264251  0.55578412  0.76940785     0.15000
H648        H  0.91504215  0.56651960  0.75624899     0.14800
C649        C  0.83946659  0.54823916  0.18408147    -0.18100
C650        C  0.83736034  0.54682029  0.13902354    -0.20300
C651        C  0.85471630  0.55225350  0.11254099     0.20400
C652        C  0.87448454  0.55958440  0.13158395    -0.03200
C653        C  0.87653303  0.56061756  0.17707567    -0.06300
C654        C  0.85890533  0.55482741  0.20344423     0.20600
C655        C  0.89606064  0.56674578  0.19614937     0.18800
C656        C  0.91351593  0.57265183  0.16965788    -0.17800
C657        C  0.91156808  0.57202936  0.12457522    -0.20000
C658        C  0.89208829  0.56526125  0.10524204     0.20300
C659        C  0.88977983  0.56345627  0.06012168    -0.33000
C660        C  0.87000205  0.55540347  0.04111392     0.01000
C661        C  0.85256351  0.54996267  0.06745572    -0.24300
C662        C  0.86085793  0.55488389  0.24864769    -0.28900
C663        C  0.87999776  0.55982964  0.26762349     0.06700
C664        C  0.89760642  0.56608446  0.24129592    -0.27600
H665        H  0.82578079  0.54370978  0.20382963     0.11400
H666        H  0.82209756  0.54124484  0.12489734     0.12500
H667        H  0.92862930  0.57747657  0.18381356     0.11600
H668        H  0.92522520  0.57642275  0.10482384     0.10800
H669        H  0.90319467  0.56733584  0.03990911     0.16200
H670        H  0.83728823  0.54370484  0.05283778     0.12100
H671        H  0.84722230  0.54980033  0.26894000     0.15000
H672        H  0.91238272  0.56992017  0.25598944     0.14800
C673        C  0.88751321  0.44153035  0.46529783    -0.18100
C674        C  0.88650822  0.42504214  0.48948260    -0.20300
C675        C  0.88445194  0.42461773  0.53469762     0.20400
C676        C  0.88399663  0.44130091  0.55579068    -0.03200
C677        C  0.88482365  0.45782436  0.53136400    -0.06300
C678        C  0.88635586  0.45781251  0.48588066     0.20600
C679        C  0.88337325  0.47397271  0.55243507     0.18800
C680        C  0.88185190  0.47383149  0.59764252    -0.17800
C681        C  0.88124730  0.45760942  0.62190030    -0.20000
C682        C  0.88206394  0.44117281  0.60116419     0.20300
C683        C  0.88041551  0.42435895  0.62511248    -0.33000
C684        C  0.88014525  0.40731169  0.60434741     0.01000
C685        C  0.88232337  0.40759395  0.55910452    -0.24300
C686        C  0.88581576  0.47359043  0.46170137    -0.28900
C687        C  0.88327298  0.48911462  0.48241695     0.06700
C688        C  0.88262438  0.48947599  0.52781090    -0.27600
H689        H  0.88871181  0.44128880  0.43038300     0.11400
H690        H  0.88700817  0.41247625  0.47276881     0.12500
H691        H  0.88075449  0.48616474  0.61437373     0.11600
H692        H  0.87975148  0.45769284  0.65661846     0.10800
H693        H  0.87853184  0.42419220  0.65987776     0.16200
H694        H  0.88217788  0.39455084  0.54298298     0.12100
H695        H  0.88623848  0.47311588  0.42669940     0.15000
H696        H  0.88080402  0.50147729  0.54403208     0.14800
C697        C  0.83391991  0.40292287  0.35986049    -0.18100
C698        C  0.83287686  0.41965657  0.37808954    -0.20300
C699        C  0.83379669  0.43552599  0.35160016     0.20400
C700        C  0.83479223  0.43403641  0.30627925    -0.03200
C701        C  0.83543356  0.41693926  0.28788179    -0.06300
C702        C  0.83565203  0.40163246  0.31491759     0.20600
C703        C  0.83710710  0.41582893  0.24263258     0.18800
C704        C  0.83770647  0.43151060  0.21610795    -0.17800
C705        C  0.83750888  0.44865464  0.23438524    -0.20000
C706        C  0.83643969  0.45025588  0.27942827     0.20300
C707        C  0.83835837  0.46837243  0.29820885    -0.33000
C708        C  0.83847300  0.47039900  0.34341283     0.01000
C709        C  0.83517842  0.45350447  0.36984612    -0.24300
C710        C  0.83880765  0.38608092  0.29661424    -0.28900
C711        C  0.84120735  0.38539646  0.25167050     0.06700
C712        C  0.83944971  0.39978049  0.22481726    -0.27600
H713        H  0.83394740  0.39125002  0.38112852     0.11400
H714        H  0.83215494  0.42060467  0.41289276     0.12500
H715        H  0.83909846  0.43090019  0.18129905     0.11600
H716        H  0.83876487  0.46094550  0.21333322     0.10800
H717        H  0.84100066  0.48139213  0.27776272     0.16200
H718        H  0.83561478  0.45509205  0.40470651     0.12100
H719        H  0.84025818  0.37503839  0.31740270     0.15000
H720        H  0.84166338  0.39955113  0.19017198     0.14800
C721        C  0.98593816  0.63149596  0.92606024    -0.18100
C722        C  0.00781344  0.64260361  0.92882590    -0.20300
C723        C  0.01912844  0.63204413  0.92888265     0.20400
C724        C  0.00812367  0.61001342  0.92685642    -0.03200
C725        C  0.98608298  0.59881628  0.92463709    -0.06300
C726        C  0.97487837  0.60957205  0.92361105     0.20600
C727        C  0.97530659  0.57682499  0.92281430     0.18800
C728        C  0.98645592  0.56616735  0.92348985    -0.17800
C729        C  0.00818288  0.57720938  0.92519561    -0.20000
C730        C  0.01912582  0.59909086  0.92667169     0.20300
C731        C  0.04090319  0.61012888  0.92802341    -0.33000
C732        C  0.05222630  0.63209836  0.93029082     0.01000
C733        C  0.04116770  0.64300282  0.93087568    -0.24300
C734        C  0.95293115  0.59820049  0.91931233    -0.28900
C735        C  0.94215461  0.57620326  0.91649622     0.06700
C736        C  0.95358090  0.56576650  0.91932764    -0.27600
H737        H  0.97767559  0.64008485  0.92554940     0.11400
H738        H  0.01589539  0.65948999  0.93051394     0.12500
H739        H  0.97837294  0.54926833  0.92213263     0.11600
H740        H  0.01644537  0.56861355  0.92523199     0.10800
H741        H  0.04904711  0.60140868  0.92789828     0.16200
H742        H  0.04964672  0.65989437  0.93282864     0.12100
H743        H  0.94433299  0.60643780  0.91752696     0.15000
H744        H  0.94561945  0.54887797  0.91742919     0.14800
C745        C  0.98737185  0.56943860  0.38243326    -0.18100
C746        C  0.00901375  0.57980244  0.38698691    -0.20300
C747        C  0.01975874  0.59996775  0.40455745     0.20400
C748        C  0.00863047  0.60988009  0.41745365    -0.03200
C749        C  0.98671089  0.59941108  0.41270361    -0.06300
C750        C  0.97611561  0.57908187  0.39531139     0.20600
C751        C  0.97541113  0.60919357  0.42553736     0.18800
C752        C  0.98625626  0.62936665  0.44328009    -0.17800
C753        C  0.00800294  0.63972387  0.44815166    -0.20000
C754        C  0.01937256  0.63015699  0.43524887     0.20300
C755        C  0.04122307  0.64038509  0.44000574    -0.33000
C756        C  0.05238346  0.63047289  0.42742343     0.01000
C757        C  0.04143086  0.61027728  0.40963318    -0.24300
C758        C  0.95440964  0.56859284  0.39140653    -0.28900
C759        C  0.94288851  0.57804308  0.40426192     0.06700
C760        C  0.95351265  0.59851428  0.42080955    -0.27600
H761        H  0.97941810  0.55382620  0.36896358     0.11400
H762        H  0.01734938  0.57199562  0.37691677     0.12500
H763        H  0.97790912  0.63712588  0.45353151     0.11600
H764        H  0.01593823  0.65524938  0.46204188     0.10800
H765        H  0.04946965  0.65587593  0.45405207     0.16200
H766        H  0.04979730  0.60246736  0.39972685     0.12100
H767        H  0.94641016  0.55290876  0.37821480     0.15000
H768        H  0.94474234  0.60585048  0.43098404     0.14800
C769        C  0.08777112  0.64425874  0.71434088    -0.18100
C770        C  0.08581094  0.64263087  0.66937449    -0.20300
C771        C  0.10038281  0.65872847  0.64281441     0.20400
C772        C  0.11714927  0.67665788  0.66157047    -0.03200
C773        C  0.11926878  0.67820105  0.70700987    -0.06300
C774        C  0.10439074  0.66197339  0.73343038     0.20600
C775        C  0.13643943  0.69576535  0.72595852     0.18800
C776        C  0.15108403  0.71178176  0.69926103    -0.17800
C777        C  0.14881885  0.71037614  0.65416410    -0.20000
C778        C  0.13198369  0.69282036  0.63494785     0.20300
C779        C  0.13004264  0.69080912  0.58965367    -0.33000
C780        C  0.11368800  0.67262942  0.57089598     0.01000
C781        C  0.09875254  0.65689087  0.59778991    -0.24300
C782        C  0.10657010  0.66355475  0.77847586    -0.28900
C783        C  0.12376309  0.68078531  0.79742844     0.06700
C784        C  0.13876895  0.69677735  0.77118088    -0.27600
H785        H  0.07636822  0.63159550  0.73418980     0.11400
H786        H  0.07293543  0.62870787  0.65534185     0.12500
H787        H  0.16434909  0.72537704  0.71326120     0.11600
H788        H  0.16039134  0.72289428  0.63429332     0.10800
H789        H  0.14172974  0.70289677  0.56913699     0.16200
H790        H  0.08605971  0.64285006  0.58363146     0.12100
H791        H  0.09535635  0.65097653  0.79884090     0.15000
H792        H  0.15221083  0.70990759  0.78601239     0.14800
C793        C  0.15143521  0.70955106  0.15451867    -0.18100
C794        C  0.15337356  0.71057166  0.19968360    -0.20300
C795        C  0.13678599  0.69645193  0.22596364     0.20400
C796        C  0.11792364  0.68143325  0.20655676    -0.03200
C797        C  0.11613542  0.68011369  0.16103961    -0.06300
C798        C  0.13298849  0.69420367  0.13484523     0.20600
C799        C  0.09770863  0.66424387  0.14179657     0.18800
C800        C  0.08103029  0.65031138  0.16798345    -0.17800
C801        C  0.08264208  0.65188348  0.21301309    -0.20000
C802        C  0.10105900  0.66723024  0.23258799     0.20300
C803        C  0.10317030  0.66803886  0.27769506    -0.33000
C804        C  0.12220228  0.68219907  0.29705359     0.01000
C805        C  0.13891394  0.69653657  0.27116383    -0.24300
C806        C  0.13133433  0.69215730  0.08956091    -0.28900
C807        C  0.11331443  0.67577612  0.07043657     0.06700
C808        C  0.09648896  0.66211574  0.09674270    -0.27600
H809        H  0.16454118  0.72047127  0.13495286     0.11400
H810        H  0.16793951  0.72224383  0.21404593     0.12500
H811        H  0.06680239  0.63804043  0.15362650     0.11600
H812        H  0.06962675  0.64079650  0.23255588     0.10800
H813        H  0.09045270  0.65673145  0.29762737     0.16200
H814        H  0.15366490  0.70739143  0.28618499     0.12100
H815        H  0.14445823  0.70254772  0.06937465     0.15000
H816        H  0.08257284  0.64948535  0.08209889     0.14800
C817        C  0.98391652  0.36771144  0.66449742    -0.18100
C818        C  0.00572826  0.37842492  0.66028147    -0.20300
C819        C  0.01739447  0.40030566  0.66361247     0.20400
C820        C  0.00684100  0.41140522  0.67130990    -0.03200
C821        C  0.98485567  0.40063403  0.67511778    -0.06300
C822        C  0.97327639  0.37864869  0.67190546     0.20600
C823        C  0.97449187  0.41193730  0.68212168     0.18800
C824        C  0.98602792  0.43374488  0.68576544    -0.17800
C825        C  0.00771449  0.44434351  0.68243570    -0.20000
C826        C  0.01822531  0.43333298  0.67502613     0.20300
C827        C  0.03992342  0.44401382  0.67075187    -0.33000
C828        C  0.05074449  0.43331189  0.66209468     0.01000
C829        C  0.03932924  0.41132935  0.65896534    -0.24300
C830        C  0.95134737  0.36809984  0.67626435    -0.28900
C831        C  0.94095410  0.37939899  0.68309163     0.06700
C832        C  0.95276616  0.40132318  0.68563304    -0.27600
H833        H  0.97536054  0.35084720  0.66184499     0.11400
H834        H  0.01347486  0.36957365  0.65438600     0.12500
H835        H  0.97826887  0.44262232  0.69126996     0.11600
H836        H  0.01627109  0.46120230  0.68536426     0.10800
H837        H  0.04837556  0.46088724  0.67353458     0.16200
H838        H  0.04742368  0.40286958  0.65241074     0.12100
H839        H  0.94241504  0.35122380  0.67406056     0.15000
H840        H  0.94505376  0.41025414  0.69113648     0.14800
C841        C  0.16202661  0.56481978  0.48210433    -0.18100
C842        C  0.16300559  0.58251247  0.46340789    -0.20300
C843        C  0.16221383  0.59762407  0.48943739     0.20400
C844        C  0.16161215  0.59551045  0.53485678    -0.03200
C845        C  0.16117616  0.57792687  0.55375416    -0.06300
C846        C  0.16060906  0.56212373  0.52719832     0.20600
C847        C  0.15998299  0.57554651  0.59911737     0.18800
C848        C  0.15974853  0.59092340  0.62520436    -0.17800
C849        C  0.15958027  0.60801935  0.60644627    -0.20000
C850        C  0.16004905  0.61022148  0.56129710     0.20300
C851        C  0.15753903  0.62600530  0.54208980    -0.33000
C852        C  0.15693714  0.62744505  0.49683670     0.01000
C853        C  0.16044339  0.61392493  0.47078815    -0.24300
C854        C  0.15737659  0.54342569  0.54608023    -0.28900
C855        C  0.15536651  0.54069128  0.59121869     0.06700
C856        C  0.15768971  0.55722762  0.61751257    -0.27600
H857        H  0.16177437  0.55296127  0.46122279     0.11400
H858        H  0.16345318  0.58391182  0.42844665     0.12500
H859        H  0.15883860  0.58928924  0.66012473     0.11600
H860        H  0.15847925  0.61919556  0.62721945     0.10800
H861        H  0.15484049  0.63639017  0.56223390     0.16200
H862        H  0.15973111  0.61478405  0.43582947     0.12100
H863        H  0.15553276  0.53070642  0.52569511     0.15000
H864        H  0.15586720  0.55512689  0.65230511     0.14800
C865        C  0.11791774  0.59206620  0.74033224    -0.18100
C866        C  0.11745932  0.57608581  0.71542233    -0.20300
C867        C  0.11431893  0.55764384  0.73514516     0.20400
C868        C  0.11131269  0.55514470  0.78033700    -0.03200
C869        C  0.11149854  0.57115237  0.80539045    -0.06300
C870        C  0.11507102  0.58979415  0.78532696     0.20600
C871        C  0.10862450  0.56869943  0.85061545     0.18800
C872        C  0.10545350  0.55025256  0.87032845    -0.17800
C873        C  0.10553023  0.53450435  0.84557255    -0.20000
C874        C  0.10859902  0.53685964  0.80066095     0.20300
C875        C  0.10948129  0.52147684  0.77587570    -0.33000
C876        C  0.11261752  0.52393493  0.73094081     0.01000
C877        C  0.11463470  0.54187605  0.71065948    -0.24300
C878        C  0.11630560  0.60605022  0.81073609    -0.28900
C879        C  0.11395165  0.60389725  0.85595044     0.06700
C880        C  0.10962975  0.58498497  0.87552076    -0.27600
H881        H  0.12067802  0.60627910  0.72444559     0.11400
H882        H  0.11982192  0.57826320  0.68078256     0.12500
H883        H  0.10327192  0.54815578  0.90500954     0.11600
H884        H  0.10338345  0.52054538  0.86164036     0.10800
H885        H  0.10796995  0.50768168  0.79157499     0.16200
H886        H  0.11736205  0.54398015  0.67607034     0.12100
H887        H  0.11956383  0.62055638  0.79541820     0.15000
H888        H  0.10798023  0.58326787  0.91037514     0.14800
C889        C  0.01191463  0.44004019  0.20972133    -0.18100
C890        C  0.99031136  0.42969582  0.21434367    -0.20300
C891        C  0.97803882  0.40903678  0.20015160     0.20400
C892        C  0.98757894  0.39849443  0.18181017    -0.03200
C893        C  0.00946170  0.40902285  0.17686636    -0.06300
C894        C  0.02155932  0.42991085  0.19065430     0.20600
C895        C  0.01918459  0.39882030  0.15760011     0.18800
C896        C  0.00681018  0.37798116  0.14414404    -0.17800
C897        C  0.98506758  0.36746018  0.14935899    -0.20000
C898        C  0.97525005  0.37760123  0.16792502     0.20300
C899        C  0.95337274  0.36743277  0.17235530    -0.33000
C900        C  0.94383899  0.37819001  0.18952209     0.01000
C901        C  0.95635559  0.39889583  0.20357704    -0.24300
C902        C  0.04308690  0.44056151  0.18443639    -0.28900
C903        C  0.05298134  0.43087468  0.16419690     0.06700
C904        C  0.04099615  0.40981385  0.15148367    -0.27600
H905        H  0.02106808  0.45607651  0.22055087     0.11400
H906        H  0.98317749  0.43792744  0.22869096     0.12500
H907        H  0.01393246  0.36985002  0.12929955     0.11600
H908        H  0.97590712  0.35144121  0.13846204     0.10800
H909        H  0.94378497  0.35145414  0.16146346     0.16200
H910        H  0.94915670  0.40718660  0.21741840     0.12100
H911        H  0.05216873  0.45668226  0.19488416     0.15000
H912        H  0.04850175  0.40223689  0.13582388     0.14800
C913        C  0.15600572  0.60687452  0.11228616    -0.18100
C914        C  0.15665361  0.58995919  0.13088233    -0.20300
C915        C  0.15754328  0.57495539  0.10462731     0.20400
C916        C  0.15858896  0.57743726  0.05927295    -0.03200
C917        C  0.15838931  0.59475291  0.04055949    -0.06300
C918        C  0.15653809  0.60925158  0.06713409     0.20600
C919        C  0.15893320  0.59692721  0.99515416     0.18800
C920        C  0.15992731  0.58200241  0.96891431    -0.17800
C921        C  0.15968965  0.56465123  0.98740286    -0.20000
C922        C  0.15869559  0.56204376  0.03247140     0.20300
C923        C  0.15659214  0.54376280  0.05101954    -0.33000
C924        C  0.15472938  0.54082503  0.09604673     0.01000
C925        C  0.15611104  0.55689065  0.12274613    -0.24300
C926        C  0.15417462  0.62518485  0.04797844    -0.28900
C927        C  0.15416262  0.62705599  0.00265632     0.06700
C928        C  0.15730599  0.61331607  0.97661881    -0.27600
H929        H  0.15463307  0.61784973  0.13320720     0.11400
H930        H  0.15574011  0.58823035  0.16577150     0.12500
H931        H  0.16022385  0.58340229  0.93397740     0.11600
H932        H  0.15980114  0.55301667  0.96637580     0.10800
H933        H  0.15542065  0.53139616  0.03036785     0.16200
H934        H  0.15429341  0.55457224  0.15748089     0.12100
H935        H  0.15152715  0.63559195  0.06815986     0.15000
H936        H  0.15680262  0.61433852  0.94166756     0.14800
C937        C  0.10592018  0.58292853  0.24165929    -0.18100
C938        C  0.10493287  0.56645338  0.21769138    -0.20300
C939        C  0.10647751  0.55041361  0.23840224     0.20400
C940        C  0.10835377  0.55058192  0.28384607    -0.03200
C941        C  0.10915901  0.56710447  0.30806377    -0.06300
C942        C  0.10835051  0.58357221  0.28675596     0.20600
C943        C  0.11152720  0.56751758  0.35340004     0.18800
C944        C  0.11272740  0.55130522  0.37421545    -0.17800
C945        C  0.11214316  0.53504606  0.35015926    -0.20000
C946        C  0.11026683  0.53470260  0.30493671     0.20300
C947        C  0.11121559  0.51930848  0.28030463    -0.33000
C948        C  0.11026460  0.51958564  0.23487555     0.01000
C949        C  0.10716056  0.53476483  0.21429302    -0.24300
C950        C  0.11059363  0.60066080  0.31076357    -0.28900
C951        C  0.11327880  0.60127493  0.35582023     0.06700
C952        C  0.11330617  0.58445692  0.37698622    -0.27600
H953        H  0.10516314  0.59536648  0.22483019     0.11400
H954        H  0.10349413  0.56653697  0.18279742     0.12500
H955        H  0.11458122  0.55144147  0.40902658     0.11600
H956        H  0.11358266  0.52296243  0.36685116     0.10800
H957        H  0.11348683  0.50758686  0.29638453     0.16200
H958        H  0.10652131  0.53517114  0.17926533     0.12100
H959        H  0.11048434  0.61356455  0.29442918     0.15000
H960        H  0.11560205  0.58495905  0.41173088     0.14800
C961        C  0.08024406  0.42947917  0.87843928    -0.18100
C962        C  0.07886569  0.42952678  0.92365696    -0.20300
C963        C  0.09690732  0.43755115  0.94926900     0.20400
C964        C  0.11638895  0.44445881  0.92922106    -0.03200
C965        C  0.11783652  0.44485617  0.88357483    -0.06300
C966        C  0.09972193  0.43775052  0.85803349     0.20600
C967        C  0.13754481  0.45347104  0.86357819     0.18800
C968        C  0.15542085  0.46015394  0.88917453    -0.17800
C969        C  0.15393489  0.45931721  0.93434477    -0.20000
C970        C  0.13459437  0.45209228  0.95467379     0.20300
C971        C  0.13330371  0.45347554  0.99977735    -0.33000
C972        C  0.11423662  0.44827622  0.01947123     0.01000
C973        C  0.09600104  0.43980639  0.99426153    -0.24300
C974        C  0.10155219  0.44016746  0.81278005    -0.28900
C975        C  0.12132772  0.45031095  0.79307012     0.06700
C976        C  0.13916570  0.45627866  0.81855520    -0.27600
H977        H  0.06615261  0.42376123  0.85940214     0.11400
H978        H  0.06373983  0.42385116  0.93854564     0.12500
H979        H  0.17064075  0.46658884  0.87427777     0.11600
H980        H  0.16804012  0.46510702  0.95337878     0.10800
H981        H  0.14736535  0.46000791  0.01921868     0.16200
H982        H  0.08123784  0.43553813  0.00956837     0.12100
H983        H  0.08775058  0.43551189  0.79329320     0.15000
H984        H  0.15441887  0.46381603  0.80344862     0.14800
C985        C  0.15411811  0.46094754  0.43704702    -0.18100
C986        C  0.15614396  0.46134613  0.39196329    -0.20300
C987        C  0.13856431  0.45430421  0.36523890     0.20400
C988        C  0.11864250  0.44598825  0.38414577    -0.03200
C989        C  0.11665180  0.44604927  0.42964095    -0.06300
C990        C  0.13451938  0.45379908  0.45616469     0.20600
C991        C  0.09692184  0.43927037  0.44841599     0.18800
C992        C  0.07922232  0.43119906  0.42178665    -0.17800
C993        C  0.08113681  0.43069919  0.37678910    -0.20000
C994        C  0.10082072  0.43857041  0.35756992     0.20300
C995        C  0.10310767  0.44022265  0.31233127    -0.33000
C996        C  0.12304753  0.44996289  0.29345759     0.01000
C997        C  0.14064675  0.45639086  0.32006420    -0.24300
C998        C  0.13258921  0.45512664  0.50110850    -0.28900
C999        C  0.11319989  0.44968331  0.51958973     0.06700
C1000       C  0.09537423  0.44145530  0.49322125    -0.27600
H1001       H  0.16798106  0.46687637  0.45691884     0.11400
H1002       H  0.17153793  0.46761626  0.37797166     0.12500
H1003       H  0.06393100  0.42569520  0.43569517     0.11600
H1004       H  0.06728194  0.42483654  0.35692168     0.10800
H1005       H  0.08951130  0.43532586  0.29202364     0.16200
H1006       H  0.15605513  0.46373683  0.30564909     0.12100
H1007       H  0.14636338  0.46158438  0.52142494     0.15000
H1008       H  0.08039523  0.43710557  0.50754326     0.14800
C1009       C  0.21849023  0.43253682  0.62224358    -0.18100
C1010       C  0.19994854  0.43268170  0.63009748    -0.20300
C1011       C  0.20022009  0.45158812  0.63644076     0.20400
C1012       C  0.21941896  0.47053770  0.63471652    -0.03200
C1013       C  0.23813530  0.47038518  0.62697511    -0.06300
C1014       C  0.23770537  0.45129201  0.62078834     0.20600
C1015       C  0.25727505  0.48936082  0.62557363     0.18800
C1016       C  0.25758703  0.50829249  0.63148851    -0.17800
C1017       C  0.23909741  0.50844623  0.63905659    -0.20000
C1018       C  0.21995549  0.48967025  0.64076813     0.20300
C1019       C  0.20136664  0.48975822  0.64824856    -0.33000
C1020       C  0.18207151  0.47097792  0.64989938     0.01000
C1021       C  0.18167334  0.45190766  0.64424962    -0.24300
C1022       C  0.25648329  0.45131047  0.61358352    -0.28900
C1023       C  0.27570980  0.47020877  0.61286038     0.06700
C1024       C  0.27581955  0.48913578  0.61858325    -0.27600
H1025       H  0.21780230  0.41772002  0.61750062     0.11400
H1026       H  0.18537019  0.41797303  0.63118703     0.12500
H1027       H  0.27216693  0.52300860  0.63040103     0.11600
H1028       H  0.23977542  0.52327520  0.64359997     0.10800
H1029       H  0.20197505  0.50455871  0.65283381     0.16200
H1030       H  0.16694174  0.43734978  0.64547532     0.12100
H1031       H  0.25613931  0.43664828  0.60893386     0.15000
H1032       H  0.29042671  0.50384320  0.61765275     0.14800
C1033       C  0.25987090  0.50804797  0.15244826    -0.18100
C1034       C  0.24129669  0.50815872  0.15882037    -0.20300
C1035       C  0.22205350  0.49019324  0.15046061     0.20400
C1036       C  0.22147162  0.47186692  0.13585453    -0.03200
C1037       C  0.24023887  0.47178662  0.12922013    -0.06300
C1038       C  0.25949172  0.48999657  0.13744890     0.20600
C1039       C  0.23974031  0.45356412  0.11409756     0.18800
C1040       C  0.22045596  0.43556051  0.10604711    -0.17800
C1041       C  0.20182810  0.43559906  0.11287981    -0.20000
C1042       C  0.20216475  0.45366377  0.12775091     0.20300
C1043       C  0.18357123  0.45387261  0.13467732    -0.33000
C1044       C  0.18408522  0.47214892  0.14896438     0.01000
C1045       C  0.20339694  0.49025487  0.15655499    -0.24300
C1046       C  0.27806347  0.48995895  0.13003762    -0.28900
C1047       C  0.27777514  0.47200419  0.11423895     0.06700
C1048       C  0.25852441  0.45376316  0.10682091    -0.27600
H1049       H  0.27455294  0.52213975  0.15897515     0.11400
H1050       H  0.24198355  0.52231655  0.17021314     0.12500
H1051       H  0.21977728  0.42144698  0.09437155     0.11600
H1052       H  0.18714721  0.42150281  0.10641840     0.10800
H1053       H  0.16872129  0.43989058  0.12860060     0.16200
H1054       H  0.20391049  0.50434589  0.16791384     0.12100
H1055       H  0.29280128  0.50406888  0.13617351     0.15000
H1056       H  0.25815159  0.43986464  0.09464795     0.14800
C1057       C  0.34149558  0.43216065  0.83770482    -0.18100
C1058       C  0.33987330  0.43270376  0.88273231    -0.20300
C1059       C  0.32839053  0.44097258  0.90162988     0.20400
C1060       C  0.31769498  0.44795901  0.87487589    -0.03200
C1061       C  0.31891798  0.44693606  0.82938523    -0.06300
C1062       C  0.33137914  0.43955628  0.81077335     0.20600
C1063       C  0.30838688  0.45409434  0.80258775     0.18800
C1064       C  0.29649992  0.46191792  0.82149936    -0.17800
C1065       C  0.29568761  0.46338064  0.86655986    -0.20000
C1066       C  0.30648934  0.45674336  0.89350679     0.20300
C1067       C  0.30697006  0.45945832  0.93858233    -0.33000
C1068       C  0.31815618  0.45310493  0.96531913     0.01000
C1069       C  0.32820376  0.44321929  0.94669737    -0.24300
C1070       C  0.33414860  0.44046460  0.76570810    -0.28900
C1071       C  0.32408825  0.44802737  0.73898543     0.06700
C1072       C  0.31068135  0.45414951  0.75746592    -0.27600
H1073       H  0.35097662  0.42628523  0.82394966     0.11400
H1074       H  0.34812595  0.42722766  0.90280427     0.12500
H1075       H  0.28830780  0.46746540  0.80140602     0.11600
H1076       H  0.28689632  0.47003811  0.88031202     0.10800
H1077       H  0.29906723  0.46697320  0.95279221     0.16200
H1078       H  0.33695537  0.43842887  0.96707951     0.12100
H1079       H  0.34446052  0.43571445  0.75142034     0.15000
H1080       H  0.30311034  0.46022107  0.73686154     0.14800
C1081       C  0.33617731  0.43103542  0.38119253    -0.18100
C1082       C  0.33799845  0.43097745  0.33612778    -0.20300
C1083       C  0.33057443  0.44131488  0.30991114     0.20400
C1084       C  0.32086143  0.45150033  0.32922940    -0.03200
C1085       C  0.31933580  0.45184591  0.37471342    -0.06300
C1086       C  0.32709866  0.44161856  0.40083349     0.20600
C1087       C  0.31056675  0.46290593  0.39403766     0.18800
C1088       C  0.30294341  0.47307397  0.36783506    -0.17800
C1089       C  0.30417115  0.47247421  0.32275878    -0.20000
C1090       C  0.31321957  0.46186143  0.30317148     0.20300
C1091       C  0.31538231  0.46199609  0.25808390    -0.33000
C1092       C  0.32576473  0.45259750  0.23897033     0.01000
C1093       C  0.33324009  0.44220093  0.26485288    -0.24300
C1094       C  0.32626175  0.44273000  0.44610052    -0.28900
C1095       C  0.31821960  0.45435669  0.46552232     0.06700
C1096       C  0.31011468  0.46412017  0.43922082    -0.27600
H1097       H  0.34223198  0.42312645  0.40073602     0.11400
H1098       H  0.34542651  0.42303110  0.32179168     0.12500
H1099       H  0.29620282  0.48166393  0.38222734     0.11600
H1100       H  0.29835117  0.48060414  0.30322735     0.10800
H1101       H  0.31001624  0.47036874  0.23797965     0.16200
H1102       H  0.34140801  0.43512912  0.24989502     0.12100
H1103       H  0.33275022  0.43537251  0.46614164     0.15000
H1104       H  0.30386970  0.47310502  0.45393414     0.14800
C1105       C  0.46406222  0.59100481  0.02138814    -0.18100
C1106       C  0.44777085  0.57537661  0.04553389    -0.20300
C1107       C  0.43201002  0.55750557  0.02498570     0.20400
C1108       C  0.43267200  0.55520098  0.97981091    -0.03200
C1109       C  0.44915395  0.57086163  0.95556448    -0.06300
C1110       C  0.46481987  0.58893574  0.97641213     0.20600
C1111       C  0.44963633  0.56868192  0.91032238     0.18800
C1112       C  0.43378780  0.55089972  0.88973083    -0.17800
C1113       C  0.41735379  0.53541956  0.91376259    -0.20000
C1114       C  0.41659756  0.53749140  0.95870086     0.20300
C1115       C  0.39981868  0.52240157  0.98278938    -0.33000
C1116       C  0.39911182  0.52471235  0.02763941     0.01000
C1117       C  0.41532893  0.54211198  0.04866731    -0.24300
C1118       C  0.48055610  0.60491919  0.95170337    -0.28900
C1119       C  0.48075295  0.60301057  0.90652020     0.06700
C1120       C  0.46556105  0.58465381  0.88620581    -0.27600
H1121       H  0.47593215  0.60481012  0.03780378     0.11400
H1122       H  0.44735164  0.57738141  0.08018821     0.12500
H1123       H  0.43393377  0.54912572  0.85495052     0.11600
H1124       H  0.40512333  0.52193376  0.89715268     0.10800
H1125       H  0.38722389  0.50897306  0.96669071     0.16200
H1126       H  0.41455686  0.54407091  0.08327725     0.12100
H1127       H  0.49224261  0.61908738  0.96744231     0.15000
H1128       H  0.46547999  0.58319729  0.85128189     0.14800
C1129       C  0.41133139  0.57597674  0.80355098    -0.18100
C1130       C  0.39419603  0.55853839  0.78496571    -0.20300
C1131       C  0.39099523  0.55744496  0.74001816     0.20400
C1132       C  0.40477492  0.57450014  0.71381531    -0.03200
C1133       C  0.42233842  0.59187845  0.73243143    -0.06300
C1134       C  0.42573942  0.59251452  0.77746071     0.20600
C1135       C  0.43709732  0.60803315  0.70564241     0.18800
C1136       C  0.43352018  0.60727368  0.66091956    -0.17800
C1137       C  0.41589915  0.59033392  0.64263176    -0.20000
C1138       C  0.40171437  0.57368473  0.66865215     0.20300
C1139       C  0.38535980  0.55568009  0.64987531    -0.33000
C1140       C  0.37263471  0.53796106  0.67521568     0.01000
C1141       C  0.37510362  0.53916326  0.72049460    -0.24300
C1142       C  0.44407249  0.60906091  0.79520222    -0.28900
C1143       C  0.45948838  0.62447023  0.76829093     0.06700
C1144       C  0.45568593  0.62405658  0.72366631    -0.27600
H1145       H  0.41372172  0.57618203  0.83818748     0.11400
H1146       H  0.38375622  0.54566937  0.80564079     0.12500
H1147       H  0.44462358  0.61955494  0.63990563     0.11600
H1148       H  0.41379203  0.58988309  0.60786484     0.10800
H1149       H  0.38377900  0.55482903  0.61492655     0.16200
H1150       H  0.36538068  0.52555945  0.74020006     0.12100
H1151       H  0.44709300  0.60902299  0.82953452     0.15000
H1152       H  0.46756764  0.63576090  0.70280561     0.14800
C1153       C  0.55932521  0.65060872  0.58897562    -0.18100
C1154       C  0.55971863  0.65268358  0.54396451    -0.20300
C1155       C  0.55633506  0.66789338  0.52476105     0.20400
C1156       C  0.55326335  0.68165672  0.55116868    -0.03200
C1157       C  0.55332232  0.67985428  0.59664349    -0.06300
C1158       C  0.55584123  0.66390515  0.61552064     0.20600
C1159       C  0.55003585  0.69345862  0.62312497     0.18800
C1160       C  0.54707353  0.70894428  0.60388415    -0.17800
C1161       C  0.54652981  0.71041427  0.55878077    -0.20000
C1162       C  0.54925948  0.69662851  0.53216121     0.20300
C1163       C  0.54720482  0.69693971  0.48701565    -0.33000
C1164       C  0.54972903  0.68288753  0.46074601     0.01000
C1165       C  0.55501053  0.66893245  0.47967106    -0.24300
C1166       C  0.55407662  0.66105169  0.66047527    -0.28900
C1167       C  0.55025202  0.67418320  0.68691966     0.06700
C1168       C  0.54891397  0.69077312  0.66823208    -0.27600
H1169       H  0.56139970  0.63836395  0.60301148     0.11400
H1170       H  0.56208493  0.64200106  0.52412892     0.12500
H1171       H  0.54457803  0.71954111  0.62372214     0.11600
H1172       H  0.54360237  0.72209999  0.54472461     0.10800
H1173       H  0.54314001  0.70771856  0.47234755     0.16200
H1174       H  0.55668262  0.65791337  0.45942482     0.12100
H1175       H  0.55526801  0.64833757  0.67489783     0.15000
H1176       H  0.54581555  0.70082282  0.68857322     0.14800
C1177       C  0.55338325  0.64503069  0.04394478    -0.18100
C1178       C  0.55317158  0.64310741  0.08907818    -0.20300
C1179       C  0.55402743  0.65884684  0.11579782     0.20400
C1180       C  0.55600102  0.67708897  0.09683135    -0.03200
C1181       C  0.55577041  0.67883986  0.05125127    -0.06300
C1182       C  0.55419053  0.66260554  0.02471117     0.20600
C1183       C  0.55613729  0.69638739  0.03235032     0.18800
C1184       C  0.55818253  0.71263444  0.05903521    -0.17800
C1185       C  0.55889655  0.71111557  0.10410665    -0.20000
C1186       C  0.55721395  0.69316484  0.12336357     0.20300
C1187       C  0.55562490  0.69056793  0.16854041    -0.33000
C1188       C  0.55208305  0.67179040  0.18751518     0.01000
C1189       C  0.55196728  0.65626473  0.16095831    -0.24300
C1190       C  0.55252690  0.66382959  0.97959457    -0.28900
C1191       C  0.55154809  0.68063071  0.96087755     0.06700
C1192       C  0.55363097  0.69698615  0.98732961    -0.27600
H1193       H  0.55224799  0.63245572  0.02408187     0.11400
H1194       H  0.55184648  0.62907453  0.10307791     0.12500
H1195       H  0.55876798  0.72633902  0.04508247     0.11600
H1196       H  0.56000743  0.72367771  0.12396276     0.10800
H1197       H  0.55582379  0.70263670  0.18867620     0.16200
H1198       H  0.54957281  0.64185990  0.17530572     0.12100
H1199       H  0.55069730  0.65109847  0.95923022     0.15000
H1200       H  0.55291228  0.70995236  0.97289367     0.14800
C1201       C  0.44655286  0.57327457  0.54545306    -0.18100
C1202       C  0.46224818  0.58931149  0.52087170    -0.20300
C1203       C  0.46246864  0.58760188  0.47568968     0.20400
C1204       C  0.44688647  0.56939172  0.45508360    -0.03200
C1205       C  0.43087441  0.55332729  0.47982888    -0.06300
C1206       C  0.43072639  0.55534897  0.52520701     0.20600
C1207       C  0.41470137  0.53556689  0.45908082     0.18800
C1208       C  0.41511093  0.53370117  0.41394483    -0.17800
C1209       C  0.43116604  0.54949373  0.38946392    -0.20000
C1210       C  0.44696197  0.56749278  0.40968459     0.20300
C1211       C  0.46245919  0.58389652  0.38521402    -0.33000
C1212       C  0.47761198  0.60241557  0.40538767     0.01000
C1213       C  0.47766113  0.60402184  0.45070292    -0.24300
C1214       C  0.41439219  0.53975004  0.54945988    -0.28900
C1215       C  0.39781933  0.52248371  0.52889040     0.06700
C1216       C  0.39812917  0.52033187  0.48374833    -0.27600
H1217       H  0.44656803  0.57506971  0.58025524     0.11400
H1218       H  0.47409162  0.60317174  0.53717741     0.12500
H1219       H  0.40287093  0.52015232  0.39751835     0.11600
H1220       H  0.43099753  0.54782207  0.35460531     0.10800
H1221       H  0.46217677  0.58256362  0.35024675     0.16200
H1222       H  0.48929186  0.61820718  0.46647118     0.12100
H1223       H  0.41403780  0.54158277  0.58421588     0.15000
H1224       H  0.38534227  0.50698633  0.46786837     0.14800
C1225       C  0.39621206  0.55982664  0.27799777    -0.18100
C1226       C  0.41347793  0.57683269  0.29684347    -0.20300
C1227       C  0.42722444  0.59398406  0.27145623     0.20400
C1228       C  0.42332811  0.59436495  0.22689136    -0.03200
C1229       C  0.40568119  0.57732973  0.20800336    -0.06300
C1230       C  0.39234118  0.55981603  0.23358412     0.20600
C1231       C  0.40205738  0.57730131  0.16317781     0.18800
C1232       C  0.41578535  0.59459063  0.13791894    -0.17800
C1233       C  0.43349379  0.61135824  0.15655773    -0.20000
C1234       C  0.43764518  0.61120417  0.20082850     0.20300
C1235       C  0.45632473  0.62694822  0.21913963    -0.33000
C1236       C  0.46033446  0.62626148  0.26332882     0.01000
C1237       C  0.44539874  0.61020447  0.28949417    -0.24300
C1238       C  0.37616409  0.54203978  0.21391681    -0.28900
C1239       C  0.37325358  0.54138300  0.16894524     0.06700
C1240       C  0.38561409  0.55941876  0.14401169    -0.27600
H1241       H  0.38617234  0.54645780  0.29796679     0.11400
H1242       H  0.41642967  0.57629524  0.33104358     0.12500
H1243       H  0.41323349  0.59480973  0.10344454     0.11600
H1244       H  0.44421749  0.62419027  0.13612912     0.10800
H1245       H  0.46799086  0.63925830  0.19896527     0.16200
H1246       H  0.44871118  0.60943598  0.32343724     0.12100
H1247       H  0.36671023  0.52819369  0.23322139     0.15000
H1248       H  0.38364201  0.55894298  0.10918383     0.14800
C1249       C  0.42132864  0.44168322  0.55643034    -0.18100
C1250       C  0.43234282  0.43099059  0.55302470    -0.20300
C1251       C  0.42277853  0.40972624  0.56379182     0.20400
C1252       C  0.40183198  0.39906668  0.57764002    -0.03200
C1253       C  0.39070454  0.40991645  0.58125710    -0.06300
C1254       C  0.40056181  0.43133045  0.57081177     0.20600
C1255       C  0.36983529  0.39940735  0.59580577     0.18800
C1256       C  0.36028023  0.37809094  0.60620062    -0.17800
C1257       C  0.37125931  0.36732044  0.60238788    -0.20000
C1258       C  0.39206084  0.37763310  0.58821431     0.20300
C1259       C  0.40328791  0.36696628  0.58468701    -0.33000
C1260       C  0.42430387  0.37759426  0.57151702     0.01000
C1261       C  0.43385144  0.39900070  0.56113050    -0.24300
C1262       C  0.38964645  0.44213565  0.57567692    -0.28900
C1263       C  0.36893382  0.43197154  0.59113319     0.06700
C1264       C  0.35903897  0.41045918  0.60046257    -0.27600
H1265       H  0.42913216  0.45812577  0.54819384     0.11400
H1266       H  0.44840253  0.43939653  0.54216651     0.12500
H1267       H  0.34430419  0.36974086  0.61750861     0.11600
H1268       H  0.36348054  0.35090025  0.61077468     0.10800
H1269       H  0.39580572  0.35053003  0.59286972     0.16200
H1270       H  0.44996317  0.40734938  0.55052421     0.12100
H1271       H  0.39748796  0.45865918  0.56806837     0.15000
H1272       H  0.34317376  0.40245846  0.61247242     0.14800
C1273       C  0.43635756  0.43366011  0.09215615    -0.18100
C1274       C  0.42581972  0.44474326  0.09665661    -0.20300
C1275       C  0.40395924  0.43425562  0.09607729     0.20400
C1276       C  0.39258100  0.41236684  0.09125031    -0.03200
C1277       C  0.40326498  0.40114398  0.08647901    -0.06300
C1278       C  0.42522511  0.41190279  0.08685796     0.20600
C1279       C  0.39201580  0.37924600  0.08105400     0.18800
C1280       C  0.37011922  0.36880807  0.08103713    -0.17800
C1281       C  0.35952196  0.37992307  0.08601444    -0.20000
C1282       C  0.37058042  0.40173095  0.09095431     0.20300
C1283       C  0.36009017  0.41309768  0.09539844    -0.33000
C1284       C  0.37138184  0.43500548  0.09970993     0.01000
C1285       C  0.39334858  0.44535212  0.10010733    -0.24300
C1286       C  0.43576836  0.40082043  0.08158651    -0.28900
C1287       C  0.42485003  0.37898961  0.07547139     0.06700
C1288       C  0.40286958  0.36826972  0.07547071    -0.27600
H1289       H  0.45324902  0.44213943  0.09256082     0.11400
H1290       H  0.43478596  0.46155003  0.10045852     0.12500
H1291       H  0.36116020  0.35202121  0.07703384     0.11600
H1292       H  0.34263653  0.37144497  0.08575934     0.10800
H1293       H  0.34320548  0.40493225  0.09518266     0.16200
H1294       H  0.40232576  0.46217458  0.10377047     0.12100
H1295       H  0.45266571  0.40939659  0.08180332     0.15000
H1296       H  0.39425252  0.35149678  0.07097859     0.14800
C1297       C  0.43254582  0.35688788  0.83459206    -0.18100
C1298       C  0.43142991  0.35424499  0.78969096    -0.20300
C1299       C  0.43449860  0.33879986  0.77076611     0.20400
C1300       C  0.43802910  0.32539111  0.79742851    -0.03200
C1301       C  0.43872246  0.32778214  0.84286992    -0.06300
C1302       C  0.43643973  0.34392499  0.86138661     0.20600
C1303       C  0.44242628  0.31451967  0.86962550     0.18800
C1304       C  0.44514817  0.29883440  0.85065796    -0.17800
C1305       C  0.44494014  0.29677761  0.80556021    -0.20000
C1306       C  0.44172100  0.31018766  0.77864539     0.20300
C1307       C  0.44307743  0.30934992  0.73338036    -0.33000
C1308       C  0.44024756  0.32316821  0.70680407     0.01000
C1309       C  0.43514690  0.33725328  0.72563640    -0.24300
C1310       C  0.43866466  0.34721193  0.90622997    -0.28900
C1311       C  0.44264482  0.33428026  0.93305882     0.06700
C1312       C  0.44400588  0.31763375  0.91468447    -0.27600
H1313       H  0.43065198  0.36927828  0.84833364     0.11400
H1314       H  0.42873645  0.36467651  0.76966988     0.12500
H1315       H  0.44796905  0.28848827  0.87067032     0.11600
H1316       H  0.44766210  0.28492928  0.79171470     0.10800
H1317       H  0.44700539  0.29845595  0.71884722     0.16200
H1318       H  0.43323550  0.34809242  0.70521928     0.12100
H1319       H  0.43750722  0.35999171  0.92030160     0.15000
H1320       H  0.44727474  0.30774990  0.93523493     0.14800
C1321       C  0.43280840  0.35909173  0.33630196    -0.18100
C1322       C  0.43196783  0.35710221  0.29122816    -0.20300
C1323       C  0.43363978  0.34097106  0.27144076     0.20400
C1324       C  0.43513483  0.32607649  0.29740191    -0.03200
C1325       C  0.43552379  0.32782953  0.34297345    -0.06300
C1326       C  0.43503124  0.34481055  0.36237610     0.20600
C1327       C  0.43744701  0.31320044  0.36897845     0.18800
C1328       C  0.43833184  0.29661337  0.34917797    -0.17800
C1329       C  0.43847043  0.29517493  0.30399845    -0.20000
C1330       C  0.43737450  0.31010324  0.27784446     0.20300
C1331       C  0.43958706  0.31003370  0.23268747    -0.33000
C1332       C  0.43895962  0.32536056  0.20691434     0.01000
C1333       C  0.43506019  0.34019661  0.22626042    -0.24300
C1334       C  0.43767729  0.34772589  0.40728576    -0.28900
C1335       C  0.44041255  0.33368298  0.43324494     0.06700
C1336       C  0.43946761  0.31600345  0.41408550    -0.27600
H1337       H  0.43221635  0.37210736  0.35073066     0.11400
H1338       H  0.43076086  0.36862575  0.27178760     0.12500
H1339       H  0.43967975  0.28516747  0.36862002     0.11600
H1340       H  0.43996087  0.28267715  0.28951748     0.10800
H1341       H  0.44253596  0.29854633  0.21767589     0.16200
H1342       H  0.43479014  0.35213221  0.20639594     0.12100
H1343       H  0.43809835  0.36121703  0.42199432     0.15000
H1344       H  0.44156899  0.30512748  0.43396514     0.14800
C1345       C  0.79216914  0.57399559  0.85591897    -0.18100
C1346       C  0.77335350  0.57377478  0.84893651    -0.20300
C1347       C  0.75408844  0.55537818  0.85499358     0.20400
C1348       C  0.75389400  0.53693911  0.86739054    -0.03200
C1349       C  0.77288483  0.53714515  0.87430338    -0.06300
C1350       C  0.79214904  0.55581346  0.86902618     0.20600
C1351       C  0.77254462  0.51868140  0.88693929     0.18800
C1352       C  0.75336138  0.50019325  0.89226033    -0.17800
C1353       C  0.73463345  0.50000160  0.88552669    -0.20000
C1354       C  0.73471814  0.51829358  0.87331514     0.20300
C1355       C  0.71592412  0.51821874  0.86731250    -0.33000
C1356       C  0.71578986  0.53654766  0.85560489     0.01000
C1357       C  0.73505228  0.55509407  0.84922670    -0.24300
C1358       C  0.81095817  0.55595948  0.87729143    -0.28900
C1359       C  0.81069581  0.53755892  0.89019997     0.06700
C1360       C  0.79134106  0.51899068  0.89446034    -0.27600
H1361       H  0.80675681  0.58845798  0.85135853     0.11400
H1362       H  0.77388138  0.58807650  0.83914737     0.12500
H1363       H  0.75283147  0.48586932  0.90192668     0.11600
H1364       H  0.72004789  0.48553549  0.89013076     0.10800
H1365       H  0.70131468  0.50379208  0.87217183     0.16200
H1366       H  0.73524612  0.56928373  0.83982307     0.12100
H1367       H  0.82573905  0.57031014  0.87354620     0.15000
H1368       H  0.79084425  0.50471804  0.90448946     0.14800
C1369       C  0.55732034  0.57585018  0.84430111    -0.18100
C1370       C  0.56781417  0.56471007  0.84783444    -0.20300
C1371       C  0.58957587  0.57498533  0.84401993     0.20400
C1372       C  0.60089983  0.59663965  0.83581493    -0.03200
C1373       C  0.59022871  0.60790979  0.83182308    -0.06300
C1374       C  0.56839264  0.59742707  0.83654844     0.20600
C1375       C  0.60136045  0.62960393  0.82353581     0.18800
C1376       C  0.62314397  0.63971328  0.81889306    -0.17800
C1377       C  0.63376386  0.62856017  0.82326879    -0.20000
C1378       C  0.62282581  0.60702178  0.83215082     0.20300
C1379       C  0.63332883  0.59569933  0.83796948    -0.33000
C1380       C  0.62203612  0.57408200  0.84681009     0.01000
C1381       C  0.60013629  0.56392646  0.84900499    -0.24300
C1382       C  0.55787418  0.60860047  0.83354502    -0.28900
C1383       C  0.56862724  0.63025874  0.82535243     0.06700
C1384       C  0.59048285  0.64069316  0.82020452    -0.27600
H1385       H  0.54051380  0.56758129  0.84780151     0.11400
H1386       H  0.55891098  0.54806746  0.85404467     0.12500
H1387       H  0.63201723  0.65631514  0.81227332     0.11600
H1388       H  0.65057214  0.63683069  0.81999412     0.10800
H1389       H  0.65017177  0.60365788  0.83569542     0.16200
H1390       H  0.59117592  0.54731887  0.85566524     0.12100
H1391       H  0.54108082  0.60021404  0.83744686     0.15000
H1392       H  0.59896772  0.65731339  0.81362327     0.14800
C1393       C  0.59835259  0.44707902  0.03063834    -0.18100
C1394       C  0.58112239  0.42982513  0.04936059    -0.20300
C1395       C  0.56655417  0.41339523  0.02339185     0.20400
C1396       C  0.56986044  0.41389395  0.97835122    -0.03200
C1397       C  0.58752402  0.43107844  0.95958746    -0.06300
C1398       C  0.60148537  0.44803930  0.98570149     0.20600
C1399       C  0.59049679  0.43184433  0.91438873     0.18800
C1400       C  0.57613728  0.41524797  0.88852656    -0.17800
C1401       C  0.55841866  0.39846123  0.90699333    -0.20000
C1402       C  0.55491495  0.39782956  0.95172739     0.20300
C1403       C  0.53621429  0.38208186  0.96993587    -0.33000
C1404       C  0.53253408  0.38190746  0.01455077     0.01000
C1405       C  0.54814883  0.39712122  0.04129564    -0.24300
C1406       C  0.61747111  0.46617387  0.96612109    -0.28900
C1407       C  0.61975553  0.46745104  0.92083622     0.06700
C1408       C  0.60690203  0.44980508  0.89547514    -0.27600
H1409       H  0.60892574  0.45991772  0.05119169     0.11400
H1410       H  0.57879831  0.42967314  0.08400597     0.12500
H1411       H  0.57817456  0.41564370  0.85374132     0.11600
H1412       H  0.54717561  0.38623911  0.88611839     0.10800
H1413       H  0.52416111  0.37048222  0.94924902     0.16200
H1414       H  0.54523218  0.39728615  0.07564479     0.12100
H1415       H  0.62730166  0.47972987  0.98582106     0.15000
H1416       H  0.60836246  0.45073178  0.86050907     0.14800
C1417       C  0.52980747  0.41416009  0.77045209    -0.18100
C1418       C  0.54549468  0.43013295  0.79525214    -0.20300
C1419       C  0.55977853  0.44925642  0.77607984     0.20400
C1420       C  0.55791224  0.45253070  0.73169919    -0.03200
C1421       C  0.54191012  0.43646504  0.70675642    -0.06300
C1422       C  0.52802276  0.41706620  0.72609154     0.20600
C1423       C  0.54025945  0.43957950  0.66221976     0.18800
C1424       C  0.55427858  0.45887794  0.64326315    -0.17800
C1425       C  0.57026647  0.47470395  0.66784726    -0.20000
C1426       C  0.57245572  0.47156732  0.71190901     0.20300
C1427       C  0.58929610  0.48680292  0.73616975    -0.33000
C1428       C  0.59146975  0.48341097  0.78018039     0.01000
C1429       C  0.57632141  0.46485319  0.80015194    -0.24300
C1430       C  0.51304174  0.40070440  0.70051997    -0.28900
C1431       C  0.51170756  0.40343367  0.65576430     0.06700
C1432       C  0.52510027  0.42313103  0.63713582    -0.27600
H1433       H  0.51926038  0.39939790  0.78585809     0.11400
H1434       H  0.54673089  0.42735888  0.82927764     0.12500
H1435       H  0.55317992  0.46156819  0.60913384     0.11600
H1436       H  0.58115913  0.48926417  0.65219060     0.10800
H1437       H  0.60088363  0.50113372  0.72074355     0.16200
H1438       H  0.57803388  0.46208583  0.83398127     0.12100
H1439       H  0.50281107  0.38566156  0.71528719     0.15000
H1440       H  0.52431628  0.42545877  0.60269321     0.14800
C1441       C  0.79127705  0.57625474  0.37832017    -0.18100
C1442       C  0.77235294  0.57592643  0.37257940    -0.20300
C1443       C  0.75323927  0.55715800  0.37610312     0.20400
C1444       C  0.75327797  0.53855455  0.38580676    -0.03200
C1445       C  0.77240575  0.53886546  0.39136318    -0.06300
C1446       C  0.79152506  0.55781108  0.38761113     0.20600
C1447       C  0.77236871  0.52018628  0.40040459     0.18800
C1448       C  0.75328694  0.50143346  0.40435098    -0.17800
C1449       C  0.73440631  0.50114348  0.39906288    -0.20000
C1450       C  0.73422145  0.51958477  0.38953768     0.20300
C1451       C  0.71532178  0.51928104  0.38298365    -0.33000
C1452       C  0.71502931  0.53765277  0.37222014     0.01000
C1453       C  0.73415050  0.55660960  0.36943134    -0.24300
C1454       C  0.81049825  0.55795974  0.39311008    -0.28900
C1455       C  0.81062104  0.53932990  0.40184819     0.06700
C1456       C  0.79136925  0.52052551  0.40531839    -0.27600
H1457       H  0.80575435  0.59096350  0.37528137     0.11400
H1458       H  0.77268229  0.59038382  0.36516388     0.12500
H1459       H  0.75295866  0.48694422  0.41141250     0.11600
H1460       H  0.71992223  0.48642794  0.40208523     0.10800
H1461       H  0.70079827  0.50455525  0.38545117     0.16200
H1462       H  0.73421929  0.57087514  0.36129949     0.12100
H1463       H  0.82514010  0.57252978  0.39026784     0.15000
H1464       H  0.79111829  0.50605927  0.41228118     0.14800
C1465       C  0.61948371  0.63864452  0.35657756    -0.18100
C1466       C  0.63035257  0.62771015  0.35815406    -0.20300
C1467       C  0.62030845  0.60635391  0.34795842     0.20400
C1468       C  0.59905871  0.59591968  0.33619154    -0.03200
C1469       C  0.58805390  0.60689669  0.33500185    -0.06300
C1470       C  0.59833421  0.62842498  0.34492264     0.20600
C1471       C  0.56676136  0.59629973  0.32379819     0.18800
C1472       C  0.55665860  0.57497477  0.31357227    -0.17800
C1473       C  0.56757055  0.56416168  0.31445263    -0.20000
C1474       C  0.58873088  0.57446764  0.32589219     0.20300
C1475       C  0.59958464  0.56355004  0.32805714    -0.33000
C1476       C  0.62064000  0.57362841  0.34095747     0.01000
C1477       C  0.63099689  0.59516194  0.35014165    -0.24300
C1478       C  0.58731805  0.63931903  0.34258576    -0.28900
C1479       C  0.56608561  0.62878405  0.33116773     0.06700
C1480       C  0.55593988  0.60721677  0.32247000    -0.27600
H1481       H  0.62764284  0.65512181  0.36447606     0.11400
H1482       H  0.64663655  0.63597079  0.36740313     0.12500
H1483       H  0.54030269  0.56665490  0.30477540     0.11600
H1484       H  0.55941582  0.54769356  0.30648544     0.10800
H1485       H  0.59141137  0.54700154  0.32072640     0.16200
H1486       H  0.64717348  0.60307775  0.36020155     0.12100
H1487       H  0.59520050  0.65588660  0.34962841     0.15000
H1488       H  0.53960866  0.59892956  0.31339623     0.14800
C1489       C  0.58012139  0.42815914  0.55229240    -0.18100
C1490       C  0.59687374  0.44605518  0.53418929    -0.20300
C1491       C  0.59992989  0.44772297  0.48921069     0.20400
C1492       C  0.58650264  0.43076026  0.46243389    -0.03200
C1493       C  0.56927937  0.41296210  0.48054684    -0.06300
C1494       C  0.56595161  0.41181977  0.52562358     0.20600
C1495       C  0.55465371  0.39698282  0.45325894     0.18800
C1496       C  0.55821653  0.39821414  0.40851467    -0.17800
C1497       C  0.57559900  0.41557054  0.39068433    -0.20000
C1498       C  0.58947499  0.43212538  0.41724125     0.20300
C1499       C  0.60540666  0.45056249  0.39904749    -0.33000
C1500       C  0.61772214  0.46811498  0.42505116     0.01000
C1501       C  0.61531256  0.46645244  0.47026382    -0.24300
C1502       C  0.54774001  0.39511917  0.54287564    -0.28900
C1503       C  0.53228497  0.38023060  0.51543544     0.06700
C1504       C  0.53607822  0.38082806  0.47085328    -0.27600
H1505       H  0.57773048  0.42749775  0.58698525     0.11400
H1506       H  0.60708544  0.45883117  0.55526436     0.12500
H1507       H  0.54723686  0.38604904  0.38717001     0.11600
H1508       H  0.57769676  0.41644846  0.35588632     0.10800
H1509       H  0.60695936  0.45183412  0.36411060     0.16200
H1510       H  0.62474337  0.47996767  0.49039002     0.12100
H1511       H  0.54469449  0.39486872  0.57726697     0.15000
H1512       H  0.52413381  0.36937659  0.44974545     0.14800
C1513       C  0.64262032  0.56935971  0.63401008    -0.18100
C1514       C  0.64056680  0.56944141  0.58888811    -0.20300
C1515       C  0.65248205  0.56425557  0.56175787     0.20400
C1516       C  0.66693567  0.55941944  0.58035312    -0.03200
C1517       C  0.66867987  0.55890408  0.62574337    -0.06300
C1518       C  0.65640919  0.56380735  0.65278625     0.20600
C1519       C  0.68223435  0.55278766  0.64400783     0.18800
C1520       C  0.69444196  0.54801538  0.61705717    -0.17800
C1521       C  0.69304379  0.54895456  0.57220434    -0.20000
C1522       C  0.67921022  0.55440432  0.55362780     0.20300
C1523       C  0.67696469  0.55416147  0.50875139    -0.33000
C1524       C  0.66198709  0.55794132  0.49001892     0.01000
C1525       C  0.64983497  0.56315414  0.51652423    -0.24300
C1526       C  0.65762020  0.56226286  0.69797162    -0.28900
C1527       C  0.67040548  0.55519335  0.71597713     0.06700
C1528       C  0.68286234  0.55082376  0.68886988    -0.27600
H1529       H  0.63307290  0.57316853  0.65423454     0.11400
H1530       H  0.62947812  0.57331182  0.57523673     0.12500
H1531       H  0.70490956  0.54331096  0.63067984     0.11600
H1532       H  0.70246861  0.54497610  0.55201000     0.10800
H1533       H  0.68606773  0.54980344  0.48840223     0.16200
H1534       H  0.63820712  0.56603118  0.50200896     0.12100
H1535       H  0.64777655  0.56537288  0.71892518     0.15000
H1536       H  0.69272275  0.54540436  0.70277818     0.14800
C1537       C  0.64704376  0.56809282  0.13374375    -0.18100
C1538       C  0.64570231  0.56869925  0.08865220    -0.20300
C1539       C  0.65782197  0.56357235  0.06213203     0.20400
C1540       C  0.67184828  0.55830333  0.08123491    -0.03200
C1541       C  0.67285971  0.55723272  0.12683594    -0.06300
C1542       C  0.66032826  0.56208564  0.15314145     0.20600
C1543       C  0.68588801  0.55067246  0.14601346     0.18800
C1544       C  0.69849742  0.54619595  0.11944281    -0.17800
C1545       C  0.69783383  0.54769755  0.07429664    -0.20000
C1546       C  0.68429441  0.55337256  0.05479934     0.20300
C1547       C  0.68227901  0.55329102  0.00945241    -0.33000
C1548       C  0.66737220  0.55724830  0.99040872     0.01000
C1549       C  0.65553396  0.56279940  0.01694932    -0.24300
C1550       C  0.66082083  0.56026367  0.19830085    -0.28900
C1551       C  0.67309578  0.55293101  0.21761355     0.06700
C1552       C  0.68567257  0.54823421  0.19126134    -0.27600
H1553       H  0.63732182  0.57187003  0.15346226     0.11400
H1554       H  0.63493499  0.57288050  0.07450667     0.12500
H1555       H  0.70870870  0.54128275  0.13356149     0.11600
H1556       H  0.70752289  0.54388157  0.05458052     0.10800
H1557       H  0.69129665  0.54881378  0.98916474     0.16200
H1558       H  0.64409495  0.56594926  0.00240012     0.12100
H1559       H  0.65087113  0.56361176  0.21836341     0.15000
H1560       H  0.69515554  0.54256258  0.20597205     0.14800
C1561       C  0.52599643  0.42029682  0.26718318    -0.18100
C1562       C  0.54208932  0.43577201  0.29196002    -0.20300
C1563       C  0.55962006  0.45217818  0.27177626     0.20400
C1564       C  0.56087181  0.45325054  0.22621837    -0.03200
C1565       C  0.54452670  0.43778433  0.20123987    -0.06300
C1566       C  0.52714322  0.42107785  0.22186464     0.20600
C1567       C  0.54582929  0.43875961  0.15568543     0.18800
C1568       C  0.56334275  0.45520900  0.13550904    -0.17800
C1569       C  0.57967928  0.47041314  0.16029923    -0.20000
C1570       C  0.57865199  0.46949398  0.20563998     0.20300
C1571       C  0.59523473  0.48428746  0.23078534    -0.33000
C1572       C  0.59407946  0.48317085  0.27614888     0.01000
C1573       C  0.57612530  0.46726949  0.29639445    -0.24300
C1574       C  0.51152189  0.40512600  0.19685209    -0.28900
C1575       C  0.51297386  0.40580400  0.15152670     0.06700
C1576       C  0.52990151  0.42291501  0.13114779    -0.27600
H1577       H  0.51275825  0.40759484  0.28346900     0.11400
H1578       H  0.54096907  0.43474063  0.32693589     0.12500
H1579       H  0.56455649  0.45613179  0.10052581     0.11600
H1580       H  0.59318715  0.48278666  0.14402567     0.10800
H1581       H  0.60906532  0.49656953  0.21514178     0.16200
H1582       H  0.57529347  0.46619851  0.33142158     0.12100
H1583       H  0.49848529  0.39196042  0.21262489     0.15000
H1584       H  0.53122426  0.42340578  0.09615018     0.14800
C1585       C  0.49259011  0.74222687  0.79638336    -0.18100
C1586       C  0.49246108  0.76087287  0.79034387    -0.20300
C1587       C  0.51120499  0.78007608  0.78976513     0.20400
C1588       C  0.53027770  0.78050916  0.79544978    -0.03200
C1589       C  0.53039980  0.76163920  0.80180555    -0.06300
C1590       C  0.51145820  0.74244151  0.80220697     0.20600
C1591       C  0.54943423  0.76198826  0.80777357     0.18800
C1592       C  0.56816713  0.78124371  0.80714069    -0.17800
C1593       C  0.56805497  0.79992456  0.80059591    -0.20000
C1594       C  0.54920638  0.79975602  0.79463456     0.20300
C1595       C  0.54894500  0.81842060  0.78751222    -0.33000
C1596       C  0.52995926  0.81809314  0.78143709     0.01000
C1597       C  0.51116735  0.79879460  0.78314769    -0.24300
C1598       C  0.51164288  0.72378402  0.80875413    -0.28900
C1599       C  0.53049656  0.72387439  0.81537072     0.06700
C1600       C  0.54937647  0.74312573  0.81453768    -0.27600
H1601       H  0.47789731  0.72761655  0.79661672     0.11400
H1602       H  0.47767601  0.76026083  0.78595902     0.12500
H1603       H  0.58294269  0.78186466  0.81167968     0.11600
H1604       H  0.58275053  0.81452958  0.80013963     0.10800
H1605       H  0.56350750  0.83316220  0.78651622     0.16200
H1606       H  0.49641670  0.79824626  0.77854453     0.12100
H1607       H  0.49696531  0.70914671  0.80918204     0.15000
H1608       H  0.56399953  0.74346385  0.81947999     0.14800
C1609       C  0.56727410  0.79933975  0.29486747    -0.18100
C1610       C  0.56738429  0.78065338  0.30093229    -0.20300
C1611       C  0.54860232  0.76156963  0.30427310     0.20400
C1612       C  0.52950967  0.76138545  0.30168262    -0.03200
C1613       C  0.52939849  0.78026413  0.29578139    -0.06300
C1614       C  0.54838221  0.79932473  0.29211321     0.20600
C1615       C  0.51029686  0.78003046  0.29330374     0.18800
C1616       C  0.49149400  0.76098984  0.29690488    -0.17800
C1617       C  0.49160227  0.74231098  0.30258043    -0.20000
C1618       C  0.51051680  0.74234793  0.30491747     0.20300
C1619       C  0.51073555  0.72368067  0.31065716    -0.33000
C1620       C  0.52969016  0.72363851  0.31367472     0.01000
C1621       C  0.54858453  0.74271675  0.31033398    -0.24300
C1622       C  0.54814737  0.81798142  0.28529661    -0.28900
C1623       C  0.52915564  0.81786292  0.28215393     0.06700
C1624       C  0.51030367  0.79878195  0.28675694    -0.27600
H1625       H  0.58200255  0.81382499  0.29219477     0.11400
H1626       H  0.58218934  0.78112985  0.30290169     0.12500
H1627       H  0.47668365  0.76052660  0.29510015     0.11600
H1628       H  0.47686924  0.72781457  0.30512717     0.10800
H1629       H  0.49602522  0.70915240  0.31331254     0.16200
H1630       H  0.56325317  0.74291930  0.31263768     0.12100
H1631       H  0.56275656  0.83255637  0.28203124     0.15000
H1632       H  0.49554960  0.79842524  0.28450444     0.14800
C1633       C  0.54786716  0.84963090  0.53645913    -0.18100
C1634       C  0.54844591  0.85159701  0.49134979    -0.20300
C1635       C  0.55114605  0.86993434  0.47193807     0.20400
C1636       C  0.55419008  0.88680376  0.49828339    -0.03200
C1637       C  0.55408312  0.88499330  0.54382673    -0.06300
C1638       C  0.55030094  0.86608720  0.56294949     0.20600
C1639       C  0.55685691  0.90176735  0.57016996     0.18800
C1640       C  0.56007393  0.92029558  0.55076502    -0.17800
C1641       C  0.55974881  0.92192575  0.50567698    -0.20000
C1642       C  0.55647560  0.90515516  0.47920016     0.20300
C1643       C  0.55464059  0.90609776  0.43414012    -0.33000
C1644       C  0.55095223  0.88909461  0.40779794     0.01000
C1645       C  0.54994590  0.87135161  0.42678929    -0.24300
C1646       C  0.54815923  0.86368526  0.60807036    -0.28900
C1647       C  0.55034846  0.88014405  0.63432708     0.06700
C1648       C  0.55540751  0.89936827  0.61534327    -0.27600
H1649       H  0.54512127  0.83507762  0.55062190     0.11400
H1650       H  0.54615277  0.83852531  0.47163169     0.12500
H1651       H  0.56224351  0.93332263  0.57049348     0.11600
H1652       H  0.56167232  0.93617726  0.49153121     0.10800
H1653       H  0.55562126  0.91988928  0.41959736     0.16200
H1654       H  0.54700524  0.85817030  0.40665219     0.12100
H1655       H  0.54427273  0.84886241  0.62275100     0.15000
H1656       H  0.55683137  0.91197884  0.63556242     0.14800
C1657       C  0.54317853  0.84744403  0.03570401    -0.18100
C1658       C  0.54355433  0.84941137  0.99063063    -0.20300
C1659       C  0.54776186  0.86831202  0.97143309     0.20400
C1660       C  0.55227144  0.88560997  0.99788593    -0.03200
C1661       C  0.55234823  0.88375653  0.04337552    -0.06300
C1662       C  0.54730427  0.86443294  0.06234016     0.20600
C1663       C  0.55673318  0.90101382  0.06985904     0.18800
C1664       C  0.56119254  0.91998805  0.05062217    -0.17800
C1665       C  0.56071327  0.92170269  0.00557883    -0.20000
C1666       C  0.55602136  0.90454404  0.97897086     0.20300
C1667       C  0.55438949  0.90577228  0.93392226    -0.33000
C1668       C  0.54956191  0.88847271  0.90751349     0.01000
C1669       C  0.54682495  0.86999230  0.92635940    -0.24300
C1670       C  0.54572299  0.86224564  0.10752300    -0.28900
C1671       C  0.54962666  0.87925521  0.13400812     0.06700
C1672       C  0.55573864  0.89874784  0.11506236    -0.27600
H1673       H  0.53937437  0.83252992  0.04974710     0.11400
H1674       H  0.54006297  0.83599256  0.97078676     0.12500
H1675       H  0.56456742  0.93337575  0.07046795     0.11600
H1676       H  0.56373841  0.93637759  0.99157699     0.10800
H1677       H  0.55659423  0.92007406  0.91940941     0.16200
H1678       H  0.54289322  0.85656881  0.90608568     0.12100
H1679       H  0.54094852  0.84717891  0.12211961     0.15000
H1680       H  0.55841045  0.91178086  0.13541210     0.14800
C1681       C  0.77268507  0.21463108  0.75380330    -0.18100
C1682       C  0.79128015  0.23352289  0.74702355    -0.20300
C1683       C  0.79117937  0.25005708  0.72496464     0.20400
C1684       C  0.77207576  0.24754267  0.70994615    -0.03200
C1685       C  0.75333317  0.22844507  0.71657774    -0.06300
C1686       C  0.75363460  0.21188279  0.73854933     0.20600
C1687       C  0.73429711  0.22597520  0.70131619     0.18800
C1688       C  0.73413082  0.24250124  0.67948725    -0.17800
C1689       C  0.75264768  0.26141340  0.67309244    -0.20000
C1690       C  0.77167264  0.26410408  0.68825997     0.20300
C1691       C  0.79029142  0.28304569  0.68191425    -0.33000
C1692       C  0.80947115  0.28562078  0.69608315     0.01000
C1693       C  0.80980129  0.26901826  0.71754293    -0.24300
C1694       C  0.73487520  0.19297737  0.74516508    -0.28900
C1695       C  0.71579858  0.19054772  0.73055499     0.06700
C1696       C  0.71571904  0.20711538  0.70845860    -0.27600
H1697       H  0.77321600  0.20214047  0.77094467     0.11400
H1698       H  0.80576067  0.23519205  0.75900979     0.12500
H1699       H  0.71964302  0.24083171  0.66750478     0.11600
H1700       H  0.75208664  0.27395360  0.65624415     0.10800
H1701       H  0.78990500  0.29570525  0.66512763     0.16200
H1702       H  0.82449871  0.27095048  0.72883699     0.12100
H1703       H  0.73506597  0.18034190  0.76248834     0.15000
H1704       H  0.70112203  0.20535691  0.69689142     0.14800
C1705       C  0.63402018  0.01619034  0.77335214    -0.18100
C1706       C  0.62310861  0.99430087  0.77656029    -0.20300
C1707       C  0.60141749  0.98278649  0.77011052     0.20400
C1708       C  0.59066827  0.99356407  0.76099139    -0.03200
C1709       C  0.60159746  0.01557413  0.75828563    -0.06300
C1710       C  0.62344217  0.02701632  0.76394317     0.20600
C1711       C  0.59059794  0.02609112  0.74950017     0.18800
C1712       C  0.56895600  0.01476301  0.74356491    -0.17800
C1713       C  0.55821186  0.99305283  0.74579710    -0.20000
C1714       C  0.56893190  0.98236454  0.75434538     0.20300
C1715       C  0.55811697  0.96062964  0.75650886    -0.33000
C1716       C  0.56845499  0.94956661  0.76594520     0.01000
C1717       C  0.59021326  0.96076458  0.77269857    -0.24300
C1718       C  0.63418878  0.04897795  0.75964730    -0.28900
C1719       C  0.62314760  0.05943465  0.75056026     0.06700
C1720       C  0.60135612  0.04777712  0.74615313    -0.27600
H1721       H  0.65075585  0.02464621  0.77808802     0.11400
H1722       H  0.63166521  0.98637009  0.78379301     0.12500
H1723       H  0.56034630  0.02269574  0.73682230     0.11600
H1724       H  0.54149448  0.98461059  0.74081780     0.10800
H1725       H  0.54140733  0.95232465  0.75132402     0.16200
H1726       H  0.59834042  0.95242309  0.78022452     0.12100
H1727       H  0.65098139  0.05786224  0.76340288     0.15000
H1728       H  0.59264694  0.05557156  0.73895473     0.14800
C1729       C  0.73598345  0.24879290  0.21210542    -0.18100
C1730       C  0.75463962  0.26762038  0.20595807    -0.20300
C1731       C  0.77382446  0.26819196  0.20694191     0.20400
C1732       C  0.77422626  0.24961171  0.21447030    -0.03200
C1733       C  0.75535389  0.23058385  0.22101207    -0.06300
C1734       C  0.73616396  0.23019670  0.21959400     0.20600
C1735       C  0.75568795  0.21198092  0.22882874     0.18800
C1736       C  0.77492385  0.21261695  0.23006169    -0.17800
C1737       C  0.79360501  0.23143044  0.22320900    -0.20000
C1738       C  0.79344344  0.25001869  0.21524354     0.20300
C1739       C  0.81210097  0.26895353  0.20780324    -0.33000
C1740       C  0.81182220  0.28756999  0.20007870     0.01000
C1741       C  0.79256236  0.28699901  0.20015476    -0.24300
C1742       C  0.71747074  0.21126475  0.22573272    -0.28900
C1743       C  0.71754396  0.19256633  0.23365620     0.06700
C1744       C  0.73680993  0.19311548  0.23522194    -0.27600
H1745       H  0.72138722  0.24878133  0.21099694     0.11400
H1746       H  0.75404813  0.28174247  0.20020130     0.12500
H1747       H  0.77552247  0.19852206  0.23611634     0.11600
H1748       H  0.80819835  0.23142823  0.22407274     0.10800
H1749       H  0.82682305  0.26919112  0.20806430     0.16200
H1750       H  0.79208295  0.30117073  0.19417501     0.12100
H1751       H  0.70281917  0.21115627  0.22458192     0.15000
H1752       H  0.73713708  0.17888304  0.24142704     0.14800
C1753       C  0.56312431  0.99268755  0.21962321    -0.18100
C1754       C  0.57416286  0.01440149  0.21602269    -0.20300
C1755       C  0.59480305  0.02595489  0.23066781     0.20400
C1756       C  0.60461290  0.01557580  0.24850072    -0.03200
C1757       C  0.59337675  0.99354168  0.25233000    -0.06300
C1758       C  0.57251219  0.98215278  0.23806745     0.20600
C1759       C  0.60286197  0.98295941  0.27089185     0.18800
C1760       C  0.62367713  0.99463432  0.28492313    -0.17800
C1761       C  0.63487049  0.01650819  0.28091773    -0.20000
C1762       C  0.62548172  0.02720948  0.26291020     0.20300
C1763       C  0.63636721  0.04926078  0.25948045    -0.33000
C1764       C  0.62633894  0.05964754  0.24267271     0.01000
C1765       C  0.60563226  0.04774291  0.22812931    -0.24300
C1766       C  0.56116489  0.96044602  0.24310098    -0.28900
C1767       C  0.57016047  0.94964433  0.26242886     0.06700
C1768       C  0.59121397  0.96100518  0.27568163    -0.27600
H1769       H  0.54713386  0.98413866  0.20840948     0.11400
H1770       H  0.56647604  0.02218842  0.20207067     0.12500
H1771       H  0.63128146  0.98685544  0.29927950     0.11600
H1772       H  0.65083880  0.02507094  0.29224550     0.10800
H1773       H  0.65231131  0.05829310  0.27080692     0.16200
H1774       H  0.59783845  0.05551929  0.21456779     0.12100
H1775       H  0.54508301  0.95194313  0.23236491     0.15000
H1776       H  0.59832881  0.95287878  0.29067180     0.14800
C1777       C  0.65228298  0.08964265  0.96308775    -0.18100
C1778       C  0.65060268  0.08802466  0.00819044    -0.20300
C1779       C  0.66163794  0.10578701  0.03425561     0.20400
C1780       C  0.67501765  0.12528690  0.01477673    -0.03200
C1781       C  0.67636263  0.12699952  0.96919719    -0.06300
C1782       C  0.66476860  0.10910858  0.94325684     0.20600
C1783       C  0.68858761  0.14673551  0.94963144     0.18800
C1784       C  0.70023289  0.16437103  0.97573434    -0.17800
C1785       C  0.69923862  0.16260600  0.02090386    -0.20000
C1786       C  0.68638448  0.14321336  0.04075925     0.20300
C1787       C  0.68403630  0.14155605  0.08598747    -0.33000
C1788       C  0.66987810  0.12237323  0.10529347     0.01000
C1789       C  0.65895303  0.10452446  0.07931327    -0.24300
C1790       C  0.66503657  0.11115198  0.89804911    -0.28900
C1791       C  0.67604003  0.13095741  0.87859123     0.06700
C1792       C  0.68819483  0.14861000  0.90446553    -0.27600
H1793       H  0.64331141  0.07575641  0.94367757     0.11400
H1794       H  0.64037842  0.07292010  0.02267331     0.12500
H1795       H  0.70980381  0.17961756  0.96121665     0.11600
H1796       H  0.70808745  0.17651755  0.04030833     0.10800
H1797       H  0.69226629  0.15539024  0.10594926     0.16200
H1798       H  0.64804575  0.08972672  0.09420185     0.12100
H1799       H  0.65555019  0.09753104  0.87823064     0.15000
H1800       H  0.69683146  0.16388899  0.88949608     0.14800
C1801       C  0.64714700  0.08748467  0.50746473    -0.18100
C1802       C  0.64951614  0.08947060  0.46247787    -0.20300
C1803       C  0.66187700  0.10916067  0.44342096     0.20400
C1804       C  0.67217030  0.12701383  0.47003704    -0.03200
C1805       C  0.67008549  0.12496920  0.51543725    -0.06300
C1806       C  0.65731504  0.10512978  0.53418844     0.20600
C1807       C  0.68046770  0.14283143  0.54198891     0.18800
C1808       C  0.69257330  0.16256081  0.52296814    -0.17800
C1809       C  0.69432859  0.16462533  0.47796517    -0.20000
C1810       C  0.68418477  0.14697054  0.45128336     0.20300
C1811       C  0.68536791  0.14899723  0.40615954    -0.33000
C1812       C  0.67491051  0.13133846  0.37942791     0.01000
C1813       C  0.66358923  0.11141107  0.39822866    -0.24300
C1814       C  0.65467810  0.10335924  0.57925826    -0.28900
C1815       C  0.66516458  0.12107747  0.60575061     0.06700
C1816       C  0.67822228  0.14070000  0.58704065    -0.27600
H1817       H  0.63730244  0.07215514  0.52134936     0.11400
H1818       H  0.64142358  0.07562310  0.44253698     0.12500
H1819       H  0.70050142  0.17642699  0.54289128     0.11600
H1820       H  0.70354959  0.18005794  0.46400654     0.10800
H1821       H  0.69404930  0.16440376  0.39174925     0.16200
H1822       H  0.65519544  0.09780619  0.37770350     0.12100
H1823       H  0.64444952  0.08825842  0.59378819     0.15000
H1824       H  0.68590841  0.15442087  0.60750319     0.14800
C1825       C  0.49813243  0.26602308  0.52092025    -0.18100
C1826       C  0.49879062  0.24762517  0.51544701    -0.20300
C1827       C  0.48101097  0.22812392  0.52325817     0.20400
C1828       C  0.46232754  0.22714371  0.53638901    -0.03200
C1829       C  0.46168250  0.24575721  0.54206787    -0.06300
C1830       C  0.47971015  0.26525812  0.53449926     0.20600
C1831       C  0.44308768  0.24485545  0.55572222     0.18800
C1832       C  0.42527857  0.22531049  0.56319031    -0.17800
C1833       C  0.42589081  0.20686726  0.55738968    -0.20000
C1834       C  0.44432585  0.20759473  0.54401078     0.20300
C1835       C  0.44506182  0.18915040  0.53798030    -0.33000
C1836       C  0.46364881  0.19000593  0.52488524     0.01000
C1837       C  0.48158909  0.20961091  0.51796301    -0.24300
C1838       C  0.47915819  0.28368051  0.54145346    -0.28900
C1839       C  0.46086976  0.28303932  0.55623620     0.06700
C1840       C  0.44275473  0.26349171  0.56248634    -0.27600
H1841       H  0.51210968  0.28088263  0.51488981     0.11400
H1842       H  0.51323904  0.24865625  0.50518219     0.12500
H1843       H  0.41087226  0.22428101  0.57374374     0.11600
H1844       H  0.41192684  0.19201107  0.56346730     0.10800
H1845       H  0.43120266  0.17414356  0.54364447     0.16200
H1846       H  0.49596737  0.21047472  0.50766485     0.12100
H1847       H  0.49318316  0.29859841  0.53607890     0.15000
H1848       H  0.42858503  0.26277188  0.57377748     0.14800
C1849       C  0.56061388  0.11208330  0.45603755    -0.18100
C1850       C  0.57676144  0.11238751  0.43208615    -0.20300
C1851       C  0.57786879  0.11546372  0.38713250     0.20400
C1852       C  0.56229312  0.11783645  0.36598825    -0.03200
C1853       C  0.54612561  0.11773312  0.39019658    -0.06300
C1854       C  0.54536051  0.11494747  0.43545461     0.20600
C1855       C  0.53105938  0.12096033  0.36923646     0.18800
C1856       C  0.53202996  0.12381668  0.32422356    -0.17800
C1857       C  0.54791261  0.12369443  0.30017260    -0.20000
C1858       C  0.56316024  0.12085799  0.32079113     0.20300
C1859       C  0.57958114  0.12157849  0.29713602    -0.33000
C1860       C  0.59553980  0.12000007  0.31814624     0.01000
C1861       C  0.59454913  0.11678481  0.36309144    -0.24300
C1862       C  0.52972423  0.11568546  0.45949027    -0.28900
C1863       C  0.51502238  0.11952837  0.43900007     0.06700
C1864       C  0.51562888  0.12184514  0.39376074    -0.27600
H1865       H  0.56025279  0.10995452  0.49078231     0.11400
H1866       H  0.58853118  0.11047313  0.44880751     0.12500
H1867       H  0.52061498  0.12634862  0.30765710     0.11600
H1868       H  0.54844096  0.12611619  0.26549706     0.10800
H1869       H  0.58046292  0.12435838  0.26252862     0.16200
H1870       H  0.60686863  0.11558854  0.37929450     0.12100
H1871       H  0.52954159  0.11410865  0.49439114     0.15000
H1872       H  0.50439248  0.12483802  0.37771941     0.14800
C1873       C  0.58411381  0.16755254  0.54649654    -0.18100
C1874       C  0.60076057  0.16669756  0.56572455    -0.20300
C1875       C  0.60233008  0.16629743  0.61095236     0.20400
C1876       C  0.58747463  0.16775576  0.63703664    -0.03200
C1877       C  0.57041675  0.16814357  0.61764863    -0.06300
C1878       C  0.56857883  0.16770958  0.57216855     0.20600
C1879       C  0.55453328  0.16758626  0.64381600     0.18800
C1880       C  0.55655251  0.16807706  0.68901380    -0.17800
C1881       C  0.57367491  0.16817525  0.70820309    -0.20000
C1882       C  0.58892270  0.16749792  0.68252554     0.20300
C1883       C  0.60480878  0.16521522  0.70157212    -0.33000
C1884       C  0.61867889  0.16213106  0.67586358     0.01000
C1885       C  0.61770068  0.16321735  0.63054400    -0.24300
C1886       C  0.55054596  0.16592312  0.55325509    -0.28900
C1887       C  0.53389875  0.16353884  0.57925045     0.06700
C1888       C  0.53629918  0.16511856  0.62444438    -0.27600
H1889       H  0.58293153  0.16720885  0.51152585     0.11400
H1890       H  0.61208153  0.16574117  0.54518637     0.12500
H1891       H  0.54456935  0.16775107  0.70957056     0.11600
H1892       H  0.57455269  0.16793495  0.74318974     0.10800
H1893       H  0.60523999  0.16403611  0.73650441     0.16200
H1894       H  0.62829733  0.16075781  0.61061780     0.12100
H1895       H  0.54867123  0.16439056  0.51841131     0.15000
H1896       H  0.52349633  0.16323281  0.64456581     0.14800
C1897       C  0.49908520  0.26499340  0.06475340    -0.18100
C1898       C  0.49939229  0.24654360  0.05750779    -0.20300
C1899       C  0.48086220  0.22787845  0.04860388     0.20400
C1900       C  0.46178021  0.22771838  0.04748786    -0.03200
C1901       C  0.46146769  0.24639516  0.05486230    -0.06300
C1902       C  0.48024793  0.26510445  0.06316728     0.20600
C1903       C  0.44244374  0.24639122  0.05353848     0.18800
C1904       C  0.42388395  0.22759158  0.04528050    -0.17800
C1905       C  0.42419882  0.20907768  0.03785243    -0.20000
C1906       C  0.44307591  0.20897480  0.03866000     0.20300
C1907       C  0.44362571  0.19054368  0.03058860    -0.33000
C1908       C  0.46267184  0.19064605  0.03132283     0.01000
C1909       C  0.48117069  0.20943333  0.04057310    -0.24300
C1910       C  0.47997114  0.28368511  0.06930541    -0.28900
C1911       C  0.46118091  0.28403512  0.06739390     0.06700
C1912       C  0.44239187  0.26520399  0.06002631    -0.27600
H1913       H  0.51363181  0.27923456  0.07128591     0.11400
H1914       H  0.51416258  0.24690328  0.05861269     0.12500
H1915       H  0.40911045  0.22722882  0.04423874     0.11600
H1916       H  0.40966661  0.19484309  0.03126619     0.10800
H1917       H  0.42927095  0.17618832  0.02355866     0.16200
H1918       H  0.49595063  0.20979054  0.04130962     0.12100
H1919       H  0.49453825  0.29797087  0.07549993     0.15000
H1920       H  0.42780920  0.26523242  0.05874117     0.14800
C1921       C  0.54530510  0.12181842  0.80360898    -0.18100
C1922       C  0.52973346  0.12222408  0.82825637    -0.20300
C1923       C  0.52994132  0.12095055  0.87354014     0.20400
C1924       C  0.54580277  0.11891960  0.89421986    -0.03200
C1925       C  0.56162836  0.11871738  0.86938844    -0.06300
C1926       C  0.56138028  0.12024996  0.82389970     0.20600
C1927       C  0.57801710  0.11761962  0.89014535     0.18800
C1928       C  0.57806881  0.11608050  0.93539405    -0.17800
C1929       C  0.56225825  0.11607589  0.96000598    -0.20000
C1930       C  0.54619891  0.11770471  0.93975418     0.20300
C1931       C  0.53089588  0.11878497  0.96428800    -0.33000
C1932       C  0.51545531  0.12150153  0.94393391     0.01000
C1933       C  0.51491087  0.12227728  0.89853964    -0.24300
C1934       C  0.57758008  0.12088700  0.79958370    -0.28900
C1935       C  0.59435489  0.12064651  0.82017141     0.06700
C1936       C  0.59437942  0.11874267  0.86537456    -0.27600
H1937       H  0.54498317  0.12310919  0.76870844     0.11400
H1938       H  0.51767126  0.12379872  0.81193103     0.12500
H1939       H  0.59050252  0.11518114  0.95179821     0.11600
H1940       H  0.56280039  0.11518531  0.99494353     0.10800
H1941       H  0.53154913  0.11840722  0.99930944     0.16200
H1942       H  0.50302985  0.12434079  0.88269487     0.12100
H1943       H  0.57764347  0.12261191  0.76471061     0.15000
H1944       H  0.60730010  0.11851303  0.88123228     0.14800
C1945       C  0.57411272  0.16768330  0.21258543    -0.18100
C1946       C  0.55664697  0.16737597  0.19452295    -0.20300
C1947       C  0.55359214  0.16588603  0.14953049     0.20400
C1948       C  0.56858459  0.16518434  0.12246804    -0.03200
C1949       C  0.58590410  0.16493951  0.14074554    -0.06300
C1950       C  0.58863399  0.16613304  0.18602288     0.20600
C1951       C  0.59994581  0.16254235  0.11380260     0.18800
C1952       C  0.59703230  0.16127051  0.06882791    -0.17800
C1953       C  0.58018034  0.16202454  0.05065431    -0.20000
C1954       C  0.56577809  0.16373295  0.07721677     0.20300
C1955       C  0.54803554  0.16286211  0.05936185    -0.33000
C1956       C  0.53239794  0.16221781  0.08611389     0.01000
C1957       C  0.53537586  0.16404584  0.13119107    -0.24300
C1958       C  0.60520771  0.16465390  0.20402261    -0.28900
C1959       C  0.61853412  0.16106357  0.17749205     0.06700
C1960       C  0.61605306  0.16044905  0.13237802    -0.27600
H1961       H  0.57592995  0.16849802  0.24744989     0.11400
H1962       H  0.54534740  0.16795060  0.21581001     0.12500
H1963       H  0.60760860  0.15935618  0.04771846     0.11600
H1964       H  0.57807729  0.16066694  0.01587153     0.10800
H1965       H  0.54558180  0.16090390  0.02468345     0.16200
H1966       H  0.52321573  0.16326305  0.15191847     0.12100
H1967       H  0.60674957  0.16471311  0.23893212     0.15000
H1968       H  0.62614732  0.15749930  0.11187352     0.14800
C1969       C  0.45606747  0.16350712  0.78465341    -0.18100
C1970       C  0.45558459  0.16157564  0.73959090    -0.20300
C1971       C  0.44857726  0.14202943  0.72029283     0.20400
C1972       C  0.44124012  0.12410084  0.74664291    -0.03200
C1973       C  0.44134522  0.12600108  0.79219451    -0.06300
C1974       C  0.44930913  0.14588407  0.81121094     0.20600
C1975       C  0.43429392  0.10815394  0.81868235     0.18800
C1976       C  0.42671371  0.08850893  0.79925503    -0.17800
C1977       C  0.42698168  0.08667969  0.75414047    -0.20000
C1978       C  0.43459045  0.10442832  0.72758450     0.20300
C1979       C  0.43637895  0.10302129  0.68253785    -0.33000
C1980       C  0.44412238  0.12094261  0.65632673     0.01000
C1981       C  0.44955598  0.14024245  0.67525652    -0.24300
C1982       C  0.45118361  0.14794422  0.85636984    -0.28900
C1983       C  0.44493481  0.13037524  0.88300590     0.06700
C1984       C  0.43582237  0.11041881  0.86400563    -0.27600
H1985       H  0.46210196  0.17886042  0.79875620     0.11400
H1986       H  0.46123769  0.17548271  0.71983546     0.12500
H1987       H  0.42113787  0.07461705  0.81901517     0.11600
H1988       H  0.42160308  0.07142067  0.74006174     0.10800
H1989       H  0.43206462  0.08809232  0.66789145     0.16200
H1990       H  0.45567705  0.15408673  0.65510077     0.12100
H1991       H  0.45806219  0.16333121  0.87080038     0.15000
H1992       H  0.43108878  0.09681783  0.88432137     0.14800
C1993       C  0.44220318  0.15564001  0.24067706    -0.18100
C1994       C  0.44292309  0.15743203  0.28579446    -0.20300
C1995       C  0.44055951  0.14086703  0.31190093     0.20400
C1996       C  0.43636263  0.12191098  0.29245372    -0.03200
C1997       C  0.43608040  0.12025942  0.24687783    -0.06300
C1998       C  0.43939461  0.13736192  0.22090459     0.20600
C1999       C  0.43360845  0.10193193  0.22739400     0.18800
C2000       C  0.42999335  0.08491056  0.25351146    -0.17800
C2001       C  0.42984653  0.08639174  0.29866779    -0.20000
C2002       C  0.43359367  0.10501486  0.31846721     0.20300
C2003       C  0.43578442  0.10746594  0.36360614    -0.33000
C2004       C  0.44158485  0.12685339  0.38272253     0.01000
C2005       C  0.44340069  0.14329604  0.35687420    -0.24300
C2006       C  0.44097286  0.13631435  0.17580864    -0.28900
C2007       C  0.44010274  0.11872355  0.15655088     0.06700
C2008       C  0.43582904  0.10135610  0.18237357    -0.27600
H2009       H  0.44463108  0.16885804  0.22122819     0.11400
H2010       H  0.44590485  0.17199419  0.30024158     0.12500
H2011       H  0.42783543  0.07064139  0.23904777     0.11600
H2012       H  0.42757201  0.07322870  0.31811815     0.10800
H2013       H  0.43448419  0.09480217  0.38352756     0.16200
H2014       H  0.44770210  0.15818578  0.37168317     0.12100
H2015       H  0.44430485  0.14974006  0.15601553     0.15000
H2016       H  0.43489316  0.08765432  0.16753201     0.14800
C2017       C  0.23965257  0.74435294  0.97014689    -0.18100
C2018       C  0.25845204  0.76299108  0.97582847    -0.20300
C2019       C  0.25948785  0.78224155  0.96971795     0.20400
C2020       C  0.24151448  0.78278403  0.95698607    -0.03200
C2021       C  0.22248946  0.76389102  0.95098862    -0.06300
C2022       C  0.22158500  0.74464447  0.95808939     0.20600
C2023       C  0.20437809  0.76424526  0.93844918     0.18800
C2024       C  0.20563680  0.78358938  0.93125240    -0.17800
C2025       C  0.22449012  0.80235200  0.93751475    -0.20000
C2026       C  0.24249167  0.80214900  0.95090649     0.20300
C2027       C  0.26135820  0.82085657  0.95892194    -0.33000
C2028       C  0.27925536  0.82032148  0.97231897     0.01000
C2029       C  0.27816184  0.80091122  0.97686687    -0.24300
C2030       C  0.20264124  0.72595710  0.95332855    -0.28900
C2031       C  0.18435848  0.72598547  0.94137616     0.06700
C2032       C  0.18538999  0.74526970  0.93366192    -0.27600
H2033       H  0.23921376  0.72968234  0.97549915     0.11400
H2034       H  0.27215318  0.76234616  0.98549941     0.12500
H2035       H  0.19196820  0.78422141  0.92126415     0.11600
H2036       H  0.22493525  0.81703135  0.93227318     0.10800
H2037       H  0.26210988  0.83575281  0.95482098     0.16200
H2038       H  0.29179920  0.80026751  0.98712668     0.12100
H2039       H  0.20218415  0.71129565  0.95904831     0.15000
H2040       H  0.17148443  0.74552194  0.92394446     0.14800
C2041       C  0.43572238  0.01858312  0.97230696    -0.18100
C2042       C  0.42520951  0.99692939  0.96788427    -0.20300
C2043       C  0.40429572  0.98490456  0.98051232     0.20400
C2044       C  0.39379185  0.99469886  0.99778426    -0.03200
C2045       C  0.40446148  0.01659727  0.00247035    -0.06300
C2046       C  0.42549054  0.02850807  0.98957255     0.20600
C2047       C  0.39415261  0.02654922  0.02010263     0.18800
C2048       C  0.37323555  0.01440425  0.03297313    -0.17800
C2049       C  0.36258406  0.99264563  0.02804207    -0.20000
C2050       C  0.37268553  0.98262843  0.01032856     0.20300
C2051       C  0.36215966  0.96080646  0.00495029    -0.33000
C2052       C  0.37270824  0.95104438  0.98802603     0.01000
C2053       C  0.39375379  0.96323341  0.97607336    -0.24300
C2054       C  0.43606471  0.05015193  0.99446235    -0.28900
C2055       C  0.42608282  0.06027334  0.01235453     0.06700
C2056       C  0.40503313  0.04840541  0.02483948    -0.27600
H2057       H  0.45189072  0.02757178  0.96234620     0.11400
H2058       H  0.43343701  0.98957953  0.95454354     0.12500
H2059       H  0.36509053  0.02174054  0.04677991     0.11600
H2060       H  0.34643544  0.98364863  0.03809435     0.10800
H2061       H  0.34595867  0.95142807  0.01449344     0.16200
H2062       H  0.40193423  0.95582467  0.96270163     0.12100
H2063       H  0.45226067  0.05914284  0.98458765     0.15000
H2064       H  0.39729278  0.05609214  0.03898171     0.14800
C2065       C  0.41676916  0.89462028  0.17965012    -0.18100
C2066       C  0.43243709  0.89440220  0.20451819    -0.20300
C2067       C  0.44854426  0.89275157  0.18454017     0.20400
C2068       C  0.44912051  0.89175335  0.13901562    -0.03200
C2069       C  0.43342425  0.89219039  0.11389978    -0.06300
C2070       C  0.41696651  0.89326596  0.13435938     0.20600
C2071       C  0.43386447  0.89089524  0.06840801     0.18800
C2072       C  0.45003502  0.88938843  0.04840381    -0.17800
C2073       C  0.46543939  0.88872338  0.07329152    -0.20000
C2074       C  0.46503470  0.88971706  0.11860337     0.20300
C2075       C  0.47995642  0.88818795  0.14384635    -0.33000
C2076       C  0.47933141  0.88888504  0.18926826     0.01000
C2077       C  0.46375153  0.89151696  0.20931802    -0.24300
C2078       C  0.40065716  0.89223144  0.10926891    -0.28900
C2079       C  0.40076798  0.89041696  0.06397339     0.06700
C2080       C  0.41773478  0.89035463  0.04377329    -0.27600
H2081       H  0.40431196  0.89552462  0.19590435     0.11400
H2082       H  0.43174830  0.89514908  0.23944994     0.12500
H2083       H  0.45054403  0.88830843  0.01349928     0.11600
H2084       H  0.47753975  0.88718048  0.05709937     0.10800
H2085       H  0.49187210  0.88614029  0.12816943     0.16200
H2086       H  0.46295169  0.89177887  0.24432269     0.12100
H2087       H  0.38766562  0.89236706  0.12498823     0.15000
H2088       H  0.41785013  0.88875929  0.00890814     0.14800
C2089       C  0.42147892  0.84288377  0.96103372    -0.18100
C2090       C  0.43885865  0.84320134  0.94276733    -0.20300
C2091       C  0.44044853  0.84207927  0.89772737     0.20400
C2092       C  0.42389656  0.83958140  0.87096694    -0.03200
C2093       C  0.40663060  0.83982888  0.88928615    -0.06300
C2094       C  0.40562681  0.84181454  0.93446337     0.20600
C2095       C  0.39115831  0.83959344  0.86217450     0.18800
C2096       C  0.39225086  0.83742874  0.81732339    -0.17800
C2097       C  0.40910605  0.83664636  0.79922724    -0.20000
C2098       C  0.42528003  0.83835652  0.82565863     0.20300
C2099       C  0.44349160  0.84047914  0.80735185    -0.33000
C2100       C  0.46072982  0.84490107  0.83356302     0.01000
C2101       C  0.45886482  0.84490641  0.87878939    -0.24300
C2102       C  0.38962383  0.84425062  0.95199846    -0.28900
C2103       C  0.37532865  0.84595363  0.92484558     0.06700
C2104       C  0.37572246  0.84296107  0.88011770    -0.27600
H2105       H  0.42090075  0.84444612  0.99580588     0.11400
H2106       H  0.45135857  0.84501111  0.96375960     0.12500
H2107       H  0.38043519  0.83704230  0.79611114     0.11600
H2108       H  0.40996790  0.83568552  0.76436888     0.10800
H2109       H  0.44496013  0.84074731  0.77240510     0.16200
H2110       H  0.47215342  0.84833605  0.89901974     0.12100
H2111       H  0.38951533  0.84681989  0.98653586     0.15000
H2112       H  0.36469260  0.84427503  0.85923996     0.14800
C2113       C  0.22128713  0.80004170  0.44951999    -0.18100
C2114       C  0.20255804  0.78122500  0.44320867    -0.20300
C2115       C  0.20221838  0.76209343  0.44366550     0.20400
C2116       C  0.22102764  0.76200827  0.44973212    -0.03200
C2117       C  0.23990358  0.78095972  0.45574010    -0.06300
C2118       C  0.24002442  0.80007196  0.45620077     0.20600
C2119       C  0.25861023  0.78071398  0.46190291     0.18800
C2120       C  0.25840674  0.76169440  0.46158580    -0.17800
C2121       C  0.23972940  0.74295279  0.45592340    -0.20000
C2122       C  0.22099013  0.74295673  0.45025606     0.20300
C2123       C  0.20223711  0.72416916  0.44524086    -0.33000
C2124       C  0.18335432  0.72396785  0.43931662     0.01000
C2125       C  0.18346180  0.74304593  0.43837097    -0.24300
C2126       C  0.25881018  0.81876549  0.46403121    -0.28900
C2127       C  0.27743311  0.81850746  0.47106116     0.06700
C2128       C  0.27718444  0.79942554  0.46911371    -0.27600
H2129       H  0.22108578  0.81456466  0.44951981     0.11400
H2130       H  0.18830235  0.78162398  0.43838098     0.12500
H2131       H  0.27267708  0.76129244  0.46620885     0.11600
H2132       H  0.23992469  0.72842956  0.45620317     0.10800
H2133       H  0.20242001  0.70963293  0.44577586     0.16200
H2134       H  0.16901297  0.74308248  0.43356835     0.12100
H2135       H  0.25889415  0.83343325  0.46507104     0.15000
H2136       H  0.29142011  0.79900967  0.47433333     0.14800
C2137       C  0.37203778  0.01638115  0.48510990    -0.18100
C2138       C  0.36087161  0.99455560  0.48074875    -0.20300
C2139       C  0.37039001  0.98269072  0.48993785     0.20400
C2140       C  0.39141283  0.99303477  0.50350747    -0.03200
C2141       C  0.40269997  0.01499015  0.50748113    -0.06300
C2142       C  0.39297747  0.02678303  0.49851740     0.20600
C2143       C  0.42377128  0.02511611  0.52043760     0.18800
C2144       C  0.43336783  0.01339902  0.52964928    -0.17800
C2145       C  0.42217751  0.99172577  0.52610074    -0.20000
C2146       C  0.40127280  0.98146563  0.51298594     0.20300
C2147       C  0.39023554  0.95981405  0.50873580    -0.33000
C2148       C  0.36943438  0.94923499  0.49439291     0.01000
C2149       C  0.35946177  0.96075931  0.48539629    -0.24300
C2150       C  0.40442109  0.04869544  0.50317217    -0.28900
C2151       C  0.42551299  0.05878778  0.51587267     0.06700
C2152       C  0.43498093  0.04680938  0.52416378    -0.27600
H2153       H  0.36429856  0.02512987  0.47790908     0.11400
H2154       H  0.34477584  0.98695599  0.47019863     0.12500
H2155       H  0.44954100  0.02100490  0.53968039     0.11600
H2156       H  0.42992114  0.98298251  0.53338867     0.10800
H2157       H  0.39812349  0.95120247  0.51603199     0.16200
H2158       H  0.34344483  0.95276904  0.47424368     0.12100
H2159       H  0.39706487  0.05785964  0.49645625     0.15000
H2160       H  0.45115728  0.05439144  0.53426670     0.14800
C2161       C  0.44504855  0.88280938  0.55039842    -0.18100
C2162       C  0.46080220  0.88260702  0.57483498    -0.20300
C2163       C  0.46133461  0.88494899  0.61995232     0.20400
C2164       C  0.44577294  0.88744846  0.64069894    -0.03200
C2165       C  0.42971242  0.88740343  0.61607323    -0.06300
C2166       C  0.42948029  0.88521795  0.57070487     0.20600
C2167       C  0.41375147  0.88923607  0.63687203     0.18800
C2168       C  0.41419241  0.89139273  0.68204616    -0.17800
C2169       C  0.43025156  0.89168200  0.70641147    -0.20000
C2170       C  0.44607907  0.88967772  0.68606391     0.20300
C2171       C  0.46195647  0.88943222  0.71033760    -0.33000
C2172       C  0.47733260  0.88657337  0.68997278     0.01000
C2173       C  0.47694102  0.88445717  0.64470676    -0.24300
C2174       C  0.41348890  0.88510158  0.54644899    -0.28900
C2175       C  0.39732384  0.88651520  0.56691327     0.06700
C2176       C  0.39750046  0.88854658  0.61216708    -0.27600
H2177       H  0.44495285  0.88092478  0.51561152     0.11400
H2178       H  0.47255963  0.88056843  0.55842672     0.12500
H2179       H  0.40207471  0.89279051  0.69856451     0.11600
H2180       H  0.43018529  0.89328028  0.74125382     0.10800
H2181       H  0.46189808  0.89072537  0.74527451     0.16200
H2182       H  0.48863427  0.88213732  0.62876779     0.12100
H2183       H  0.41319958  0.88310287  0.51164176     0.15000
H2184       H  0.38498013  0.88950048  0.62804785     0.14800
C2185       C  0.35337232  0.92140640  0.74802929    -0.18100
C2186       C  0.35120323  0.91940223  0.70308147    -0.20300
C2187       C  0.33494085  0.90120865  0.68454457     0.20400
C2188       C  0.32027258  0.88513570  0.71152366    -0.03200
C2189       C  0.32222311  0.88734751  0.75695839    -0.06300
C2190       C  0.33916680  0.90534844  0.77518288     0.20600
C2191       C  0.30774159  0.87120165  0.78407195     0.18800
C2192       C  0.29119153  0.85320403  0.76543604    -0.17800
C2193       C  0.28952331  0.85081379  0.72038058    -0.20000
C2194       C  0.30418929  0.86652219  0.69315342     0.20300
C2195       C  0.30356743  0.86369586  0.64806109    -0.33000
C2196       C  0.31839794  0.87956147  0.62125770     0.01000
C2197       C  0.33361587  0.89847198  0.63957112    -0.24300
C2198       C  0.34212804  0.90661526  0.82011681    -0.28900
C2199       C  0.32823695  0.89026819  0.84725115     0.06700
C2200       C  0.31063713  0.87294221  0.82918112    -0.27600
H2201       H  0.36639587  0.93536064  0.76154751     0.11400
H2202       H  0.36258874  0.93186366  0.68278520     0.12500
H2203       H  0.27988612  0.84069023  0.78573241     0.11600
H2204       H  0.27696634  0.83651012  0.70685045     0.10800
H2205       H  0.29184234  0.84908151  0.63384698     0.16200
H2206       H  0.34523846  0.91056649  0.61889465     0.12100
H2207       H  0.35559305  0.92009036  0.83394774     0.15000
H2208       H  0.29992820  0.86025975  0.84997444     0.14800
C2209       C  0.29900406  0.84894731  0.26366754    -0.18100
C2210       C  0.29794421  0.84734408  0.21856798    -0.20300
C2211       C  0.30977550  0.86502144  0.19267847     0.20400
C2212       C  0.32267144  0.88457299  0.21229543    -0.03200
C2213       C  0.32401788  0.88612368  0.25784338    -0.06300
C2214       C  0.31210606  0.86820718  0.28360661     0.20600
C2215       C  0.33769432  0.90545365  0.27754374     0.18800
C2216       C  0.34936223  0.92316815  0.25159884    -0.17800
C2217       C  0.34778806  0.92169347  0.20643738    -0.20000
C2218       C  0.33464543  0.90244170  0.18642628     0.20300
C2219       C  0.33374737  0.90057274  0.14109073    -0.33000
C2220       C  0.32147055  0.88096082  0.12154403     0.01000
C2221       C  0.30937516  0.86334317  0.14753658    -0.24300
C2222       C  0.31401591  0.86972546  0.32878871    -0.28900
C2223       C  0.32825804  0.88871943  0.34841979     0.06700
C2224       C  0.33990147  0.90656904  0.32273288    -0.27600
H2225       H  0.28984455  0.83503833  0.28296205     0.11400
H2226       H  0.28799470  0.83222617  0.20391662     0.12500
H2227       H  0.35988752  0.93813198  0.26623406     0.11600
H2228       H  0.35712950  0.93555208  0.18713445     0.10800
H2229       H  0.34340671  0.91411260  0.12114675     0.16200
H2230       H  0.29997252  0.84818323  0.13253996     0.12100
H2231       H  0.30524599  0.85589262  0.34859052     0.15000
H2232       H  0.35088417  0.92122664  0.33795509     0.14800
C2233       C  0.41141649  0.84400836  0.29551528    -0.18100
C2234       C  0.39458859  0.84470519  0.31396255    -0.20300
C2235       C  0.39198569  0.84371440  0.35903151     0.20400
C2236       C  0.40602705  0.84117634  0.38571529    -0.03200
C2237       C  0.42329672  0.84097281  0.36717279    -0.06300
C2238       C  0.42609043  0.84266126  0.32190810     0.20600
C2239       C  0.43845758  0.84047640  0.39407460     0.18800
C2240       C  0.43540126  0.83865586  0.43903245    -0.17800
C2241       C  0.41802259  0.83837380  0.45736659    -0.20000
C2242       C  0.40356230  0.84017248  0.43107224     0.20300
C2243       C  0.38747351  0.84232791  0.44945423    -0.33000
C2244       C  0.37439659  0.84638488  0.42320306     0.01000
C2245       C  0.37636614  0.84647423  0.37798550    -0.24300
C2246       C  0.44425702  0.84452230  0.30403591    -0.28900
C2247       C  0.46023501  0.84597243  0.33089352     0.06700
C2248       C  0.45701518  0.84325544  0.37575921    -0.27600
H2249       H  0.41343304  0.84540941  0.26070043     0.11400
H2250       H  0.38393109  0.84659675  0.29303849     0.12500
H2251       H  0.44678280  0.83810801  0.46012636     0.11600
H2252       H  0.41634504  0.83759904  0.49225896     0.10800
H2253       H  0.38627231  0.84261244  0.48439328     0.16200
H2254       H  0.36639312  0.84970971  0.35769520     0.12100
H2255       H  0.44681337  0.84689424  0.26942030     0.15000
H2256       H  0.46934257  0.84437519  0.39643540     0.14800
loop_ 
_geom_bond_atom_site_label_1 
_geom_bond_atom_site_label_2 
_geom_bond_distance 
_geom_bond_site_symmetry_2 
_ccdc_geom_bond_type 
O1          Cr19   1.980       .  S
O1            C9   1.260       .  A
O2          Cr19   2.021       .  S
O2            C3   1.270       .  A
C3            O4   1.260       .  A
C3         C2127   1.480       .  S
O4          Cr20   1.963       .  S
O5          Cr20   2.018       .  S
O5            C6   1.267       .  A
C6            O7   1.259       .  A
C6         C2244   1.476       .  S
O7          Cr21   1.974       .  S
O8          Cr21   2.011       .  S
O8            C9   1.266       .  A
C9         C2223   1.473       .  S
O10         Cr19   2.031       .  S
O10          C18   1.269       .  A
O11         Cr19   1.982       .  S
O11          C12   1.261       .  A
C12          O13   1.265       .  A
C12        C2196   1.473       .  S
O13         Cr20   2.013       .  S
O14         Cr20   1.980       .  S
O14          C15   1.261       .  A
C15          O16   1.268       .  A
C15        C2175   1.476       .  S
O16         Cr21   2.013       .  S
O17         Cr21   1.955       .  S
O17          C18   1.258       .  A
C18        C2148   1.483       .  S
Cr19         O22   1.770       .  S
Cr20         O22   1.765       .  S
Cr21         O22   1.758       .  S
O23         Cr41   1.984       .  S
O23          C31   1.261       .  A
O24         Cr41   2.028       .  S
O24          C25   1.273       .  A
C25          O26   1.263       .  A
C25        C2028   1.485       .  S
O26         Cr42   1.968   1_556  S
O27         Cr42   1.997   1_556  S
O27          C28   1.262       .  A
C28          O29   1.259       .  A
C28        C2103   1.471       .  S
O29         Cr43   1.982       .  S
O30         Cr43   2.007       .  S
O30          C31   1.266       .  A
C31        C2199   1.479       .  S
O32         Cr41   2.018       .  S
O32          C40   1.268       .  A
O33         Cr41   1.995   1_554  S
O33          C34   1.260       .  A
C34          O35   1.260       .  A
C34        C2220   1.475       .  S
O35         Cr42   1.994       .  S
O36         Cr42   1.986       .  S
O36          C37   1.264       .  A
C37          O38   1.270   1_554  A
C37        C2079   1.481       .  S
O38         Cr43   2.016       .  S
O39         Cr43   1.958       .  S
O39          C40   1.257       .  A
C40        C2052   1.476       .  S
Cr41         O44   1.772       .  S
Cr42         O44   1.766   1_554  S
Cr43         O44   1.764       .  S
O45         Cr63   1.984       .  S
O45          C53   1.262       .  A
O46         Cr63   2.030       .  S
O46          C47   1.272       .  A
C47          O48   1.262       .  A
C47        C1908   1.488       .  S
O48         Cr64   1.967   1_554  S
O49         Cr64   2.016   1_554  S
O49          C50   1.268       .  A
C50          O51   1.258       .  A
C50        C1956   1.476       .  S
O51         Cr65   1.977       .  S
O52         Cr65   2.011       .  S
O52          C53   1.266       .  A
C53        C2007   1.478       .  S
O54         Cr63   2.026       .  S
O54          C62   1.269       .  A
O55         Cr63   1.992   1_556  S
O55          C56   1.262       .  A
C56          O57   1.266       .  A
C56        C1983   1.484       .  S
O57         Cr64   2.012       .  S
O58         Cr64   1.974       .  S
O58          C59   1.261       .  A
C59          O60   1.268   1_556  A
C59        C1932   1.476       .  S
O60         Cr65   2.014       .  S
O61         Cr65   1.954       .  S
O61          C62   1.256       .  A
C62        C2055   1.478       .  S
Cr63         O66   1.769       .  S
Cr64         O66   1.764   1_556  S
Cr65         O66   1.763       .  S
O67         Cr85   1.984       .  S
O67          C75   1.261       .  A
O68         Cr85   2.025       .  S
O68          C69   1.272       .  A
C69          O70   1.262       .  A
C69        C1836   1.486       .  S
O70         Cr86   1.971       .  S
O71         Cr86   2.021       .  S
O71          C72   1.268       .  A
C72          O73   1.260       .  A
C72        C1887   1.480       .  S
O73         Cr87   1.978       .  S
O74         Cr87   2.015       .  S
O74          C75   1.266       .  A
C75        C1980   1.477       .  S
O76         Cr85   2.026       .  S
O76          C84   1.269       .  A
O77         Cr85   1.985       .  S
O77          C78   1.259       .  A
C78          O79   1.266       .  A
C78        C2004   1.477       .  S
O79         Cr86   2.015       .  S
O80         Cr86   1.977       .  S
O80          C81   1.262       .  A
C81          O82   1.268       .  A
C81        C1863   1.480       .  S
O82         Cr87   2.014       .  S
O83         Cr87   1.959       .  S
O83          C84   1.258       .  A
C84        C2151   1.481       .  S
Cr85         O88   1.770       .  S
Cr86         O88   1.769       .  S
Cr87         O88   1.764       .  S
O89        Cr107   1.988       .  S
O89          C97   1.262       .  A
O90        Cr107   2.033       .  S
O90          C91   1.273       .  A
C91          O92   1.264       .  A
C91        C1743   1.492       .  S
O92        Cr108   1.976       .  S
O93        Cr108   2.011       .  S
O93          C94   1.265       .  A
C94          O95   1.259       .  A
C94        C1959   1.478       .  S
O95        Cr109   1.977       .  S
O96        Cr109   2.007       .  S
O96          C97   1.266       .  A
C97        C1788   1.477       .  S
O98        Cr107   2.039       .  S
O98         C106   1.271       .  A
O99        Cr107   1.991       .  S
O99         C100   1.262       .  A
C100        O101   1.263       .  A
C100       C1812   1.475       .  S
O101       Cr108   1.999       .  S
O102       Cr108   1.981       .  S
O102        C103   1.262       .  A
C103        O104   1.267       .  A
C103       C1860   1.473       .  S
O104       Cr109   2.010       .  S
O105       Cr109   1.962       .  S
O105        C106   1.258       .  A
C106       C1764   1.488       .  S
Cr107       O110   1.771       .  S
Cr108       O110   1.768       .  S
Cr109       O110   1.763       .  S
O111       Cr129   1.983       .  S
O111        C119   1.261       .  A
O112       Cr129   2.025       .  S
O112        C113   1.270       .  A
C113        O114   1.261       .  A
C113       C1695   1.483       .  S
O114       Cr130   1.972       .  S
O115       Cr130   2.019       .  S
O115        C116   1.268       .  A
C116        O117   1.260       .  A
C116       C1884   1.480       .  S
O117       Cr131   1.980       .  S
O118       Cr131   2.003       .  S
O118        C119   1.263       .  A
C119       C1815   1.470       .  S
O120       Cr129   2.031       .  S
O120        C128   1.270       .  A
O121       Cr129   1.983       .  S
O121        C122   1.262       .  A
C122        O123   1.267       .  A
C122       C1791   1.478       .  S
O123       Cr130   2.014       .  S
O124       Cr130   1.979       .  S
O124        C125   1.261       .  A
C125        O126   1.265       .  A
C125       C1935   1.471       .  S
O126       Cr131   2.004       .  S
O127       Cr131   1.956       .  S
O127        C128   1.258       .  A
C128       C1719   1.482       .  S
Cr129       O132   1.769       .  S
Cr130       O132   1.761       .  S
Cr131       O132   1.762       .  S
O133       Cr151   1.984       .  S
O133        C141   1.262       .  A
O134       Cr151   2.029       .  S
O134        C135   1.273       .  A
C135        O136   1.261       .  A
C135       C1623   1.488       .  S
O136       Cr152   1.970       .  S
O137       Cr152   2.002       .  S
O137        C138   1.264       .  A
C138        O139   1.260       .  A
C138       C2247   1.472       .  S
O139       Cr153   1.984       .  S
O140       Cr153   2.012       .  S
O140        C141   1.267       .  A
C141       C1644   1.480       .  S
O142       Cr151   2.032       .  S
O142        C150   1.269       .  A
O143       Cr151   1.991       .  S
O143        C144   1.262       .  A
C144        O145   1.263       .  A
C144       C1671   1.476       .  S
O145       Cr152   2.005       .  S
O146       Cr152   1.982       .  S
O146        C147   1.263       .  A
C147        O148   1.269       .  A
C147       C2076   1.483       .  S
O148       Cr153   2.017       .  S
O149       Cr153   1.971       .  S
O149        C150   1.261       .  A
C150       C1767   1.491       .  S
Cr151       O154   1.770       .  S
Cr152       O154   1.770       .  S
Cr153       O154   1.763       .  S
O155       Cr173   1.980       .  S
O155        C163   1.261       .  A
O156       Cr173   2.031       .  S
O156        C157   1.272       .  A
C157        O158   1.260       .  A
C157       C1596   1.490       .  S
O158       Cr174   1.970       .  S
O159       Cr174   2.010       .  S
O159        C160   1.266       .  A
C160        O161   1.259       .  A
C160       C2100   1.473       .  S
O161       Cr175   1.974       .  S
O162       Cr175   2.012       .  S
O162        C163   1.266       .  A
C163       C1668   1.476       .  S
O164       Cr173   2.033       .  S
O164        C172   1.270       .  A
O165       Cr173   1.985       .  S
O165        C166   1.261       .  A
C166        O167   1.266       .  A
C166       C1647   1.475       .  S
O167       Cr174   2.011       .  S
O168       Cr174   1.980       .  S
O168        C169   1.262       .  A
C169        O170   1.268       .  A
C169       C2172   1.483       .  S
O170       Cr175   2.018       .  S
O171       Cr175   1.959       .  S
O171        C172   1.259       .  A
C172       C1716   1.486       .  S
Cr173       O176   1.770       .  S
Cr174       O176   1.766       .  S
Cr175       O176   1.761       .  S
O177       Cr195   1.976       .  S
O177        C185   1.263       .  A
O178       Cr195   2.039       .  S
O178        C179   1.274       .  A
C179        O180   1.261       .  A
C179       C1452   1.496       .  S
O180       Cr196   1.974       .  S
O181       Cr196   2.009       .  S
O181        C182   1.267       .  A
C182        O183   1.260       .  A
C182       C1500   1.477       .  S
O183       Cr197   1.981       .  S
O184       Cr197   2.009       .  S
O184        C185   1.264       .  A
C185       C1524   1.472       .  S
O186       Cr195   2.030       .  S
O186        C194   1.271       .  A
O187       Cr195   1.986       .  S
O187        C188   1.262       .  A
C188        O189   1.266       .  A
C188       C1551   1.483       .  S
O189       Cr196   2.016       .  S
O190       Cr196   1.976       .  S
O190        C191   1.261       .  A
C191        O192   1.265       .  A
C191       C1572   1.471       .  S
O192       Cr197   2.003       .  S
O193       Cr197   1.966       .  S
O193        C194   1.258       .  A
C194       C1476   1.487       .  S
Cr195       O198   1.765       .  S
Cr196       O198   1.767       .  S
Cr197       O198   1.768       .  S
O199       Cr217   1.994       .  S
O199        C207   1.263       .  A
O200       Cr217   2.040       .  S
O200        C201   1.274       .  A
C201        O202   1.263       .  A
C201       C1356   1.497       .  S
O202       Cr218   1.976       .  S
O203       Cr218   2.018       .  S
O203        C204   1.269       .  A
C204        O205   1.260       .  A
C204       C1407   1.480       .  S
O205       Cr219   1.976       .  S
O206       Cr219   2.011       .  S
O206        C207   1.266       .  A
C207       C1548   1.483       .  S
O208       Cr217   2.037       .  S
O208        C216   1.272       .  A
O209       Cr217   1.983       .  S
O209        C210   1.259       .  A
C210        O211   1.265       .  A
C210       C1527   1.472       .  S
O211       Cr218   2.004       .  S
O212       Cr218   1.988       .  S
O212        C213   1.262       .  A
C213        O214   1.267       .  A
C213       C1428   1.481       .  S
O214       Cr219   2.019       .  S
O215       Cr219   1.962       .  S
O215        C216   1.259       .  A
C216       C1380   1.490       .  S
Cr217       O220   1.771       .  S
Cr218       O220   1.765       .  S
Cr219       O220   1.762       .  S
O221       Cr239   1.986       .  S
O221        C229   1.261   1_554  A
O222       Cr239   2.037       .  S
O222        C223   1.274       .  A
C223        O224   1.262       .  A
C223       C1911   1.489       .  S
O224       Cr240   1.964       .  S
O225       Cr240   2.019       .  S
O225        C226   1.267       .  A
C226        O227   1.260       .  A
C226       C1404   1.478       .  S
O227       Cr241   1.980       .  S
O228       Cr241   2.008   1_556  S
O228        C229   1.266       .  A
C229       C1311   1.479       .  S
O230       Cr239   2.042       .  S
O230        C238   1.273       .  A
O231       Cr239   1.987       .  S
O231        C232   1.260       .  A
C232        O233   1.264       .  A
C232       C1332   1.475       .  S
O233       Cr240   2.011       .  S
O234       Cr240   1.976       .  S
O234        C235   1.262       .  A
C235        O236   1.267       .  A
C235       C1575   1.472       .  S
O236       Cr241   2.007       .  S
O237       Cr241   1.959       .  S
O237        C238   1.257       .  A
C238       C1287   1.494       .  S
Cr239       O242   1.770       .  S
Cr240       O242   1.768       .  S
Cr241       O242   1.764       .  S
O243       Cr261   1.983       .  S
O243        C251   1.261       .  A
O244       Cr261   2.039       .  S
O244        C245   1.275       .  A
C245        O246   1.261       .  A
C245       C1839   1.490       .  S
O246       Cr262   1.968       .  S
O247       Cr262   2.002       .  S
O247        C248   1.262       .  A
C248        O249   1.258       .  A
C248       C1503   1.471       .  S
O249       Cr263   1.981       .  S
O250       Cr263   2.011       .  S
O250        C251   1.267       .  A
C251       C1335   1.481       .  S
O252       Cr261   2.036       .  S
O252        C260   1.272       .  A
O253       Cr261   1.987       .  S
O253        C254   1.260       .  A
C254        O255   1.262       .  A
C254       C1308   1.476       .  S
O255       Cr262   2.008       .  S
O256       Cr262   1.983       .  S
O256        C257   1.266       .  A
C257        O258   1.272       .  A
C257       C1431   1.488       .  S
O258       Cr263   2.022       .  S
O259       Cr263   1.964       .  S
O259        C260   1.258       .  A
C260       C1260   1.491       .  S
Cr261       O264   1.771       .  S
Cr262       O264   1.772       .  S
Cr263       O264   1.765       .  S
O265       Cr283   1.989       .  S
O265        C273   1.263       .  A
O266       Cr283   2.040       .  S
O266        C267   1.275       .  A
C267        O268   1.260       .  A
C267       C1620   1.490       .  S
O268       Cr284   1.961       .  S
O269       Cr284   2.004       .  S
O269        C270   1.265       .  A
C270        O271   1.259       .  A
C270       C1236   1.467       .  S
O271       Cr285   1.978       .  S
O272       Cr285   2.010       .  S
O272        C273   1.265       .  A
C273       C1188   1.487       .  S
O274       Cr283   2.035       .  S
O274        C282   1.272       .  A
O275       Cr283   1.983       .  S
O275        C276   1.259       .  A
C276        O277   1.263       .  A
C276       C1164   1.473       .  S
O277       Cr284   2.008       .  S
O278       Cr284   1.982       .  S
O278        C279   1.263       .  A
C279        O280   1.267       .  A
C279       C1212   1.480       .  S
O280       Cr285   2.012       .  S
O281       Cr285   1.956       .  S
O281        C282   1.257       .  A
C282       C1479   1.483       .  S
Cr283       O286   1.769       .  S
Cr284       O286   1.769       .  S
Cr285       O286   1.764       .  S
O287       Cr305   1.981       .  S
O287        C295   1.261       .  A
O288       Cr305   2.041       .  S
O288        C289   1.276       .  A
C289        O290   1.263       .  A
C289       C1599   1.494       .  S
O290       Cr306   1.970       .  S
O291       Cr306   2.026       .  S
O291        C292   1.268       .  A
C292        O293   1.260       .  A
C292       C1143   1.483       .  S
O293       Cr307   1.981       .  S
O294       Cr307   2.005       .  S
O294        C295   1.266       .  A
C295       C1167   1.475       .  S
O296       Cr305   2.043       .  S
O296        C304   1.271       .  A
O297       Cr305   1.990       .  S
O297        C298   1.260       .  A
C298        O299   1.266       .  A
C298       C1191   1.479       .  S
O299       Cr306   2.018       .  S
O300       Cr306   1.969       .  S
O300        C301   1.260       .  A
C301        O302   1.266       .  A
C301       C1119   1.468       .  S
O302       Cr307   2.001       .  S
O303       Cr307   1.958       .  S
O303        C304   1.257       .  A
C304       C1383   1.494       .  S
Cr305       O308   1.770       .  S
Cr306       O308   1.769       .  S
Cr307       O308   1.761       .  S
O309       Cr327   1.983       .  S
O309        C317   1.259       .  A
O310       Cr327   2.027       .  S
O310        C311   1.272       .  A
C311        O312   1.260       .  A
C311       C1047   1.480       .  S
O312       Cr328   1.961       .  S
O313       Cr328   2.015       .  S
O313        C314   1.264       .  A
C314        O315   1.258       .  A
C314       C1239   1.476       .  S
O315       Cr329   1.974       .  S
O316       Cr329   2.002       .  S
O316        C317   1.262       .  A
C317       C1092   1.467       .  S
O318       Cr327   2.038       .  S
O318        C326   1.273       .  A
O319       Cr327   1.988       .  S
O319        C320   1.263       .  A
C320        O321   1.265       .  A
C320       C1068   1.481   1_554  S
O321       Cr328   2.010       .  S
O322       Cr328   1.969       .  S
O322        C323   1.261       .  A
C323        O324   1.266       .  A
C323       C1116   1.462       .  S
O324       Cr329   2.001       .  S
O325       Cr329   1.961       .  S
O325        C326   1.258       .  A
C326       C1284   1.491       .  S
Cr327       O330   1.765       .  S
Cr328       O330   1.767       .  S
Cr329       O330   1.761       .  S
O331       Cr349   1.981       .  S
O331        C339   1.260       .  A
O332       Cr349   2.040       .  S
O332        C333   1.275       .  A
C333        O334   1.262       .  A
C333       C1023   1.491       .  S
O334       Cr350   1.966       .  S
O335       Cr350   2.014       .  S
O335        C336   1.267       .  A
C336        O337   1.259       .  A
C336       C1140   1.482       .  S
O337       Cr351   1.982       .  S
O338       Cr351   2.013       .  S
O338        C339   1.266       .  A
C339       C1071   1.475       .  S
O340       Cr349   2.044       .  S
O340        C348   1.274       .  A
O341       Cr349   1.989       .  S
O341        C342   1.262       .  A
C342        O343   1.264       .  A
C342       C1095   1.479       .  S
O343       Cr350   2.001       .  S
O344       Cr350   1.976       .  S
O344        C345   1.260       .  A
C345        O346   1.268       .  A
C345       C1215   1.472       .  S
O346       Cr351   2.013       .  S
O347       Cr351   1.966       .  S
O347        C348   1.257       .  A
C348       C1263   1.494       .  S
Cr349       O352   1.768       .  S
Cr350       O352   1.763       .  S
Cr351       O352   1.764       .  S
O353       Cr371   1.983       .  S
O353        C361   1.260       .  A
O354       Cr371   2.019       .  S
O354        C355   1.272       .  A
C355        O356   1.263       .  A
C355       C1044   1.477       .  S
O356       Cr372   1.967       .  S
O357       Cr372   2.016       .  S
O357        C358   1.266       .  A
C358        O359   1.260       .  A
C358        C924   1.480       .  S
O359       Cr373   1.982       .  S
O360       Cr373   2.016       .  S
O360        C361   1.267       .  A
C361        C972   1.478       .  S
O362       Cr371   2.028       .  S
O362        C370   1.268       .  A
O363       Cr371   1.994       .  S
O363        C364   1.262       .  A
C364        O365   1.263       .  A
C364        C996   1.482       .  S
O365       Cr372   2.008       .  S
O366       Cr372   1.978       .  S
O366        C367   1.263       .  A
C367        O368   1.269       .  A
C367        C948   1.479       .  S
O368       Cr373   2.015       .  S
O369       Cr373   1.954       .  S
O369        C370   1.257       .  A
C370        C903   1.482       .  S
Cr371       O374   1.772       .  S
Cr372       O374   1.770       .  S
Cr373       O374   1.764       .  S
O375       Cr393   1.982       .  S
O375        C383   1.260       .  A
O376       Cr393   2.033       .  S
O376        C377   1.273       .  A
C377        O378   1.262       .  A
C377       C1020   1.489       .  S
O378       Cr394   1.967       .  S
O379       Cr394   2.015       .  S
O379        C380   1.267       .  A
C380        O381   1.260       .  A
C380        C855   1.479       .  S
O381       Cr395   1.983       .  S
O382       Cr395   2.016       .  S
O382        C383   1.267       .  A
C383        C999   1.477       .  S
O384       Cr393   2.039       .  S
O384        C392   1.272       .  A
O385       Cr393   1.990       .  S
O385        C386   1.261       .  A
C386        O387   1.266       .  A
C386        C975   1.482       .  S
O387       Cr394   2.011       .  S
O388       Cr394   1.977       .  S
O388        C389   1.262       .  A
C389        O390   1.268       .  A
C389        C876   1.476       .  S
O390       Cr395   2.019       .  S
O391       Cr395   1.962       .  S
O391        C392   1.259       .  A
C392        C828   1.493       .  S
Cr393       O396   1.771       .  S
Cr394       O396   1.765       .  S
Cr395       O396   1.767       .  S
O397       Cr415   1.991       .  S
O397        C405   1.262       .  A
O398       Cr415   2.022       .  S
O398        C399   1.270       .  A
C399        O400   1.262       .  A
C399       C2124   1.482       .  S
O400       Cr416   1.966       .  S
O401       Cr416   2.012       .  S
O401        C402   1.266       .  A
C402        O403   1.260       .  A
C402        C852   1.477       .  S
O403       Cr417   1.981       .  S
O404       Cr417   1.995       .  S
O404        C405   1.264       .  A
C405        C780   1.479       .  S
O406       Cr415   2.030       .  S
O406        C414   1.270       .  A
O407       Cr415   1.988       .  S
O407        C408   1.263       .  A
C408        O409   1.263       .  A
C408        C804   1.472       .  S
O409       Cr416   2.005       .  S
O410       Cr416   1.985       .  S
O410        C411   1.263       .  A
C411        O412   1.265       .  A
C411        C951   1.475       .  S
O412       Cr417   2.002       .  S
O413       Cr417   1.968       .  S
O413        C414   1.260       .  A
C414        C756   1.487       .  S
Cr415       O418   1.771       .  S
Cr416       O418   1.766       .  S
Cr417       O418   1.761       .  S
O419       Cr437   1.985       .  S
O419        C427   1.263   1_556  A
O420       Cr437   2.035       .  S
O420        C421   1.273       .  A
C421        O422   1.263       .  A
C421       C2031   1.489       .  S
O422       Cr438   1.970       .  S
O423       Cr438   2.018       .  S
O423        C424   1.267       .  A
C424        O425   1.258       .  A
C424        C927   1.479   1_556  S
O425       Cr439   1.977       .  S
O426       Cr439   2.005   1_554  S
O426        C427   1.267       .  A
C427        C807   1.476       .  S
O428       Cr437   2.042       .  S
O428        C436   1.271       .  A
O429       Cr437   1.985       .  S
O429        C430   1.262       .  A
C430        O431   1.264       .  A
C430        C783   1.467       .  S
O431       Cr438   2.007       .  S
O432       Cr438   1.973       .  S
O432        C433   1.260       .  A
C433        O434   1.268       .  A
C433        C879   1.478       .  S
O434       Cr439   2.016       .  S
O435       Cr439   1.962       .  S
O435        C436   1.257       .  A
C436        C732   1.493       .  S
Cr437       O440   1.770       .  S
Cr438       O440   1.764       .  S
Cr439       O440   1.760       .  S
O441       Cr459   1.987       .  S
O441        C449   1.261       .  A
O442       Cr459   2.042       .  S
O442        C443   1.275       .  A
C443        O444   1.263       .  A
C443       C1455   1.497       .  S
O444       Cr460   1.973       .  S
O445       Cr460   2.017       .  S
O445        C446   1.267       .  A
C446        O447   1.259       .  A
C446        C708   1.477       .  S
O447       Cr461   1.974       .  S
O448       Cr461   2.004       .  S
O448        C449   1.264       .  A
C449        C663   1.474       .  S
O450       Cr459   2.041       .  S
O450        C458   1.273       .  A
O451       Cr459   1.988       .  S
O451        C452   1.260       .  A
C452        O453   1.265       .  A
C452        C636   1.477       .  S
O453       Cr460   2.010       .  S
O454       Cr460   1.981       .  S
O454        C455   1.263       .  A
C455        O456   1.266       .  A
C455        C687   1.480       .  S
O456       Cr461   2.013       .  S
O457       Cr461   1.955       .  S
O457        C458   1.257       .  A
C458        C759   1.485       .  S
Cr459       O462   1.770       .  S
Cr460       O462   1.767       .  S
Cr461       O462   1.766       .  S
O463       Cr481   1.980       .  S
O463        C471   1.261       .  A
O464       Cr481   2.039       .  S
O464        C465   1.274       .  A
C465        O466   1.261       .  A
C465       C1359   1.493       .  S
O466       Cr482   1.970       .  S
O467       Cr482   2.002       .  S
O467        C468   1.265       .  A
C468        O469   1.260       .  A
C468        C615   1.472       .  S
O469       Cr483   1.979       .  S
O470       Cr483   2.016       .  S
O470        C471   1.267       .  A
C471        C639   1.481       .  S
O472       Cr481   2.036       .  S
O472        C480   1.271       .  A
O473       Cr481   1.983       .  S
O473        C474   1.260       .  A
C474        O475   1.263       .  A
C474        C660   1.475   1_556  S
O475       Cr482   2.003       .  S
O476       Cr482   1.985       .  S
O476        C477   1.263       .  A
C477        O478   1.269       .  A
C477        C588   1.485       .  S
O478       Cr483   2.021       .  S
O479       Cr483   1.964       .  S
O479        C480   1.259       .  A
C480        C735   1.492       .  S
Cr481       O484   1.771       .  S
Cr482       O484   1.768       .  S
Cr483       O484   1.765       .  S
O485       Cr503   1.982       .  S
O485        C493   1.262       .  A
O486       Cr503   2.027       .  S
O486        C487   1.272       .  A
C487        O488   1.263       .  A
C487       C1740   1.489       .  S
O488       Cr504   1.975       .  S
O489       Cr504   2.006       .  S
O489        C490   1.264       .  A
C490        O491   1.259       .  A
C490        C711   1.475       .  S
O491       Cr505   1.981       .  S
O492       Cr505   2.010       .  S
O492        C493   1.266       .  A
C493        C564   1.476       .  S
O494       Cr503   2.025       .  S
O494        C502   1.268       .  A
O495       Cr503   1.990       .  S
O495        C496   1.261       .  A
C496        O497   1.262       .  A
C496        C543   1.472       .  S
O497       Cr504   2.005       .  S
O498       Cr504   1.984       .  S
O498        C499   1.264       .  A
C499        O500   1.270       .  A
C499        C591   1.481       .  S
O500       Cr505   2.019       .  S
O501       Cr505   1.963       .  S
O501        C502   1.259       .  A
C502        C900   1.481       .  S
Cr503       O506   1.770       .  S
Cr504       O506   1.769       .  S
Cr505       O506   1.767       .  S
O507       Cr525   1.990       .  S
O507        C515   1.261       .  A
O508       Cr525   2.026       .  S
O508        C509   1.272       .  A
C509        O510   1.262       .  A
C509       C1692   1.484       .  S
O510       Cr526   1.971       .  S
O511       Cr526   2.009       .  S
O511        C512   1.266       .  A
C512        O513   1.259       .  A
C512        C612   1.469       .  S
O513       Cr527   1.975       .  S
O514       Cr527   2.003       .  S
O514        C515   1.264       .  A
C515        C540   1.482       .  S
O516       Cr525   2.035       .  S
O516        C524   1.272       .  A
O517       Cr525   1.986       .  S
O517        C518   1.260       .  A
C518        O519   1.264       .  A
C518        C567   1.474       .  S
O519       Cr526   2.002       .  S
O520       Cr526   1.992       .  S
O520        C521   1.264       .  A
C521        O522   1.266       .  A
C521        C684   1.481       .  S
O522       Cr527   2.005       .  S
O523       Cr527   1.962       .  S
O523        C524   1.259       .  A
C524        C831   1.489       .  S
Cr525       O528   1.771       .  S
Cr526       O528   1.771       .  S
Cr527       O528   1.762       .  S
C529        C530   1.398       .  A
C529        C534   1.403       .  A
C529        H545   1.083       .  S
C530        C531   1.403       .  A
C530        H546   1.084       .  S
C531        C541   1.402       .  A
C531        C532   1.411       .  A
C532        C538   1.413       .  A
C532        C533   1.413       .  A
C533        C535   1.412       .  A
C533        C534   1.413       .  A
C534        C542   1.403   1_556  A
C535        C544   1.405   1_556  A
C535        C536   1.404       .  A
C536        C537   1.401       .  A
C536        H547   1.083       .  S
C537        C538   1.404       .  A
C537        H548   1.084       .  S
C538        C539   1.407       .  A
C539        C540   1.408       .  A
C539        H549   1.084       .  S
C540        C541   1.407       .  A
C541        H550   1.085       .  S
C542        C543   1.403       .  A
C542        H551   1.085       .  S
C543        C544   1.406       .  A
C544        H552   1.084       .  S
C553        C554   1.399       .  A
C553        C558   1.403       .  A
C553        H569   1.084       .  S
C554        C555   1.403       .  A
C554        H570   1.084       .  S
C555        C565   1.404       .  A
C555        C556   1.412       .  A
C556        C562   1.411       .  A
C556        C557   1.412       .  A
C557        C559   1.413       .  A
C557        C558   1.411       .  A
C558        C566   1.402       .  A
C559        C568   1.404       .  A
C559        C560   1.403       .  A
C560        C561   1.400       .  A
C560        H571   1.084       .  S
C561        C562   1.404       .  A
C561        H572   1.083       .  S
C562        C563   1.404       .  A
C563        C564   1.406       .  A
C563        H573   1.084       .  S
C564        C565   1.405       .  A
C565        H574   1.085       .  S
C566        C567   1.405       .  A
C566        H575   1.085       .  S
C567        C568   1.405       .  A
C568        H576   1.085       .  S
C577        C578   1.400       .  A
C577        C582   1.404       .  A
C577        H593   1.084       .  S
C578        C579   1.404       .  A
C578        H594   1.084       .  S
C579        C589   1.405       .  A
C579        C580   1.412       .  A
C580        C586   1.411   1_554  A
C580        C581   1.414       .  A
C581        C583   1.413       .  A
C581        C582   1.411       .  A
C582        C590   1.403       .  A
C583        C592   1.406       .  A
C583        C584   1.404   1_554  A
C584        C585   1.401       .  A
C584        H595   1.084       .  S
C585        C586   1.405       .  A
C585        H596   1.084       .  S
C586        C587   1.405       .  A
C587        C588   1.409       .  A
C587        H597   1.084       .  S
C588        C589   1.407   1_556  A
C589        H598   1.084       .  S
C590        C591   1.408       .  A
C590        H599   1.084       .  S
C591        C592   1.407       .  A
C592        H600   1.085       .  S
C601        C602   1.397       .  A
C601        C606   1.403       .  A
C601        H617   1.084       .  S
C602        C603   1.402       .  A
C602        H618   1.084       .  S
C603        C613   1.402       .  A
C603        C604   1.414       .  A
C604        C610   1.410       .  A
C604        C605   1.409       .  A
C605        C607   1.414       .  A
C605        C606   1.410       .  A
C606        C614   1.397       .  A
C607        C616   1.404       .  A
C607        C608   1.403       .  A
C608        C609   1.398       .  A
C608        H619   1.084       .  S
C609        C610   1.404       .  A
C609        H620   1.084       .  S
C610        C611   1.399       .  A
C611        C612   1.406       .  A
C611        H621   1.084       .  S
C612        C613   1.402       .  A
C613        H622   1.085       .  S
C614        C615   1.406       .  A
C614        H623   1.085       .  S
C615        C616   1.405       .  A
C616        H624   1.084       .  S
C625        C626   1.399       .  A
C625        C630   1.403       .  A
C625        H641   1.083       .  S
C626        C627   1.403       .  A
C626        H642   1.084       .  S
C627        C637   1.403       .  A
C627        C628   1.412       .  A
C628        C634   1.412       .  A
C628        C629   1.414       .  A
C629        C631   1.412       .  A
C629        C630   1.412       .  A
C630        C638   1.403       .  A
C631        C640   1.407       .  A
C631        C632   1.405       .  A
C632        C633   1.401       .  A
C632        H643   1.083       .  S
C633        C634   1.404       .  A
C633        H644   1.084       .  S
C634        C635   1.407       .  A
C635        C636   1.407       .  A
C635        H645   1.085       .  S
C636        C637   1.405       .  A
C637        H646   1.085       .  S
C638        C639   1.406       .  A
C638        H647   1.084       .  S
C639        C640   1.408       .  A
C640        H648   1.084       .  S
C649        C650   1.399       .  A
C649        C654   1.403       .  A
C649        H665   1.084       .  S
C650        C651   1.404       .  A
C650        H666   1.083       .  S
C651        C661   1.403       .  A
C651        C652   1.412       .  A
C652        C658   1.412       .  A
C652        C653   1.412       .  A
C653        C655   1.411       .  A
C653        C654   1.413       .  A
C654        C662   1.404       .  A
C655        C664   1.403       .  A
C655        C656   1.404       .  A
C656        C657   1.399       .  A
C656        H667   1.084       .  S
C657        C658   1.403       .  A
C657        H668   1.084       .  S
C658        C659   1.403       .  A
C659        C660   1.405       .  A
C659        H669   1.085       .  S
C660        C661   1.406       .  A
C661        H670   1.084       .  S
C662        C663   1.404       .  A
C662        H671   1.084       .  S
C663        C664   1.406       .  A
C664        H672   1.084       .  S
C673        C674   1.401       .  A
C673        C678   1.405       .  A
C673        H689   1.084       .  S
C674        C675   1.404       .  A
C674        H690   1.082       .  S
C675        C685   1.408       .  A
C675        C676   1.413       .  A
C676        C682   1.409       .  A
C676        C677   1.412       .  A
C677        C679   1.414       .  A
C677        C678   1.410       .  A
C678        C686   1.404       .  A
C679        C688   1.401       .  A
C679        C680   1.401       .  A
C680        C681   1.397       .  A
C680        H691   1.089       .  S
C681        C682   1.405       .  A
C681        H692   1.079       .  S
C682        C683   1.400       .  A
C683        C684   1.409       .  A
C683        H693   1.083       .  S
C684        C685   1.406       .  A
C685        H694   1.083       .  S
C686        C687   1.410       .  A
C686        H695   1.083       .  S
C687        C688   1.404       .  A
C688        H696   1.087       .  S
C697        C698   1.400       .  A
C697        C702   1.403       .  A
C697        H713   1.087       .  S
C698        C699   1.405       .  A
C698        H714   1.081       .  S
C699        C709   1.403       .  A
C699        C700   1.410       .  A
C700        C706   1.413       .  A
C700        C701   1.412       .  A
C701        C703   1.410       .  A
C701        C702   1.415       .  A
C702        C710   1.406       .  A
C703        C712   1.399       .  A
C703        C704   1.404       .  A
C704        C705   1.398       .  A
C704        H715   1.084       .  S
C705        C706   1.403       .  A
C705        H716   1.084       .  S
C706        C707   1.403       .  A
C707        C708   1.405       .  A
C707        H717   1.085       .  S
C708        C709   1.409       .  A
C709        H718   1.083       .  S
C710        C711   1.405       .  A
C710        H719   1.087       .  S
C711        C712   1.407       .  A
C712        H720   1.085       .  S
C721        C722   1.406   1_655  A
C721        C726   1.406       .  A
C721        H737   1.083       .  S
C722        C723   1.406       .  A
C722        H738   1.083       .  S
C723        C733   1.415       .  A
C723        C724   1.413       .  A
C724        C730   1.409       .  A
C724        C725   1.416   1_455  A
C725        C727   1.410       .  A
C725        C726   1.412       .  A
C726        C734   1.415       .  A
C727        C736   1.398       .  A
C727        C728   1.402       .  A
C728        C729   1.395   1_655  A
C728        H739   1.084       .  S
C729        C730   1.402       .  A
C729        H740   1.084       .  S
C730        C731   1.398       .  A
C731        C732   1.409       .  A
C731        H741   1.084       .  S
C732        C733   1.412       .  A
C733        H742   1.084       .  S
C734        C735   1.412       .  A
C734        H743   1.084       .  S
C735        C736   1.409       .  A
C736        H744   1.084       .  S
C745        C746   1.396   1_655  A
C745        C750   1.403       .  A
C745        H761   1.084       .  S
C746        C747   1.402       .  A
C746        H762   1.084       .  S
C747        C757   1.400       .  A
C747        C748   1.411       .  A
C748        C754   1.411       .  A
C748        C749   1.415   1_455  A
C749        C751   1.414       .  A
C749        C750   1.409       .  A
C750        C758   1.398       .  A
C751        C760   1.413       .  A
C751        C752   1.405       .  A
C752        C753   1.404   1_655  A
C752        H763   1.083       .  S
C753        C754   1.406       .  A
C753        H764   1.084       .  S
C754        C755   1.411       .  A
C755        C756   1.410       .  A
C755        H765   1.084       .  S
C756        C757   1.407       .  A
C757        H766   1.084       .  S
C758        C759   1.408       .  A
C758        H767   1.085       .  S
C759        C760   1.408       .  A
C760        H768   1.084       .  S
C769        C770   1.396       .  A
C769        C774   1.402       .  A
C769        H785   1.083       .  S
C770        C771   1.403       .  A
C770        H786   1.084       .  S
C771        C781   1.397       .  A
C771        C772   1.410       .  A
C772        C778   1.413       .  A
C772        C773   1.411       .  A
C773        C775   1.412       .  A
C773        C774   1.413       .  A
C774        C782   1.400       .  A
C775        C784   1.406       .  A
C775        C776   1.404       .  A
C776        C777   1.401       .  A
C776        H787   1.084       .  S
C777        C778   1.404       .  A
C777        H788   1.083       .  S
C778        C779   1.407       .  A
C779        C780   1.407       .  A
C779        H789   1.084       .  S
C780        C781   1.407       .  A
C781        H790   1.085       .  S
C782        C783   1.401       .  A
C782        H791   1.085       .  S
C783        C784   1.405       .  A
C784        H792   1.085       .  S
C793        C794   1.401       .  A
C793        C798   1.404       .  A
C793        H809   1.084       .  S
C794        C795   1.405       .  A
C794        H810   1.083       .  S
C795        C805   1.405       .  A
C795        C796   1.411       .  A
C796        C802   1.413       .  A
C796        C797   1.412       .  A
C797        C799   1.411       .  A
C797        C798   1.413       .  A
C798        C806   1.406       .  A
C799        C808   1.399       .  A
C799        C800   1.403       .  A
C800        C801   1.397       .  A
C800        H811   1.083       .  S
C801        C802   1.402       .  A
C801        H812   1.084       .  S
C802        C803   1.401       .  A
C803        C804   1.402       .  A
C803        H813   1.085       .  S
C804        C805   1.408       .  A
C805        H814   1.084       .  S
C806        C807   1.407       .  A
C806        H815   1.084       .  S
C807        C808   1.405       .  A
C808        H816   1.084       .  S
C817        C818   1.406   1_655  A
C817        C822   1.406       .  A
C817        H833   1.083       .  S
C818        C819   1.406       .  A
C818        H834   1.083       .  S
C819        C829   1.415       .  A
C819        C820   1.412       .  A
C820        C826   1.410       .  A
C820        C821   1.416   1_455  A
C821        C823   1.410       .  A
C821        C822   1.412       .  A
C822        C830   1.414       .  A
C823        C832   1.398       .  A
C823        C824   1.402       .  A
C824        C825   1.395   1_655  A
C824        H835   1.084       .  S
C825        C826   1.403       .  A
C825        H836   1.084       .  S
C826        C827   1.398       .  A
C827        C828   1.409       .  A
C827        H837   1.084       .  S
C828        C829   1.412       .  A
C829        H838   1.083       .  S
C830        C831   1.411       .  A
C830        H839   1.084       .  S
C831        C832   1.408       .  A
C832        H840   1.084       .  S
C841        C842   1.400       .  A
C841        C846   1.404       .  A
C841        H857   1.083       .  S
C842        C843   1.404       .  A
C842        H858   1.084       .  S
C843        C853   1.402       .  A
C843        C844   1.410       .  A
C844        C850   1.414       .  A
C844        C845   1.413       .  A
C845        C847   1.410       .  A
C845        C846   1.414       .  A
C846        C854   1.408       .  A
C847        C856   1.400       .  A
C847        C848   1.404       .  A
C848        C849   1.398       .  A
C848        H859   1.084       .  S
C849        C850   1.403       .  A
C849        H860   1.083       .  S
C850        C851   1.404       .  A
C851        C852   1.405       .  A
C851        H861   1.084       .  S
C852        C853   1.408       .  A
C853        H862   1.085       .  S
C854        C855   1.406       .  A
C854        H863   1.084       .  S
C855        C856   1.407       .  A
C856        H864   1.085       .  S
C865        C866   1.399       .  A
C865        C870   1.404       .  A
C865        H881   1.084       .  S
C866        C867   1.404       .  A
C866        H882   1.084       .  S
C867        C877   1.403       .  A
C867        C868   1.412       .  A
C868        C874   1.412       .  A
C868        C869   1.411       .  A
C869        C871   1.412       .  A
C869        C870   1.412       .  A
C870        C878   1.402       .  A
C871        C880   1.402       .  A
C871        C872   1.403       .  A
C872        C873   1.398       .  A
C872        H883   1.083       .  S
C873        C874   1.403       .  A
C873        H884   1.084       .  S
C874        C875   1.403       .  A
C875        C876   1.405       .  A
C875        H885   1.085       .  S
C876        C877   1.407       .  A
C877        H886   1.084       .  S
C878        C879   1.407       .  A
C878        H887   1.084       .  S
C879        C880   1.407       .  A
C880        H888   1.084       .  S
C889        C890   1.394   1_455  A
C889        C894   1.402       .  A
C889        H905   1.084       .  S
C890        C891   1.402       .  A
C890        H906   1.084       .  S
C891        C901   1.396       .  A
C891        C892   1.411       .  A
C892        C898   1.412       .  A
C892        C893   1.413   1_655  A
C893        C895   1.413       .  A
C893        C894   1.410       .  A
C894        C902   1.394       .  A
C895        C904   1.412       .  A
C895        C896   1.406       .  A
C896        C897   1.405   1_455  A
C896        H907   1.083       .  S
C897        C898   1.406       .  A
C897        H908   1.083       .  S
C898        C899   1.412       .  A
C899        C900   1.409       .  A
C899        H909   1.084       .  S
C900        C901   1.405       .  A
C901        H910   1.085       .  S
C902        C903   1.406       .  A
C902        H911   1.085       .  S
C903        C904   1.409       .  A
C904        H912   1.084       .  S
C913        C914   1.401       .  A
C913        C918   1.404       .  A
C913        H929   1.084       .  S
C914        C915   1.405       .  A
C914        H930   1.084       .  S
C915        C925   1.404       .  A
C915        C916   1.410       .  A
C916        C922   1.414       .  A
C916        C917   1.414       .  A
C917        C919   1.410   1_554  A
C917        C918   1.413       .  A
C918        C926   1.408       .  A
C919        C928   1.401       .  A
C919        C920   1.404       .  A
C920        C921   1.398       .  A
C920        H931   1.084       .  S
C921        C922   1.403   1_556  A
C921        H932   1.083       .  S
C922        C923   1.405       .  A
C923        C924   1.404       .  A
C923        H933   1.084       .  S
C924        C925   1.410       .  A
C925        H934   1.085       .  S
C926        C927   1.407       .  A
C926        H935   1.084       .  S
C927        C928   1.407   1_554  A
C928        H936   1.085       .  S
C937        C938   1.399       .  A
C937        C942   1.403       .  A
C937        H953   1.083       .  S
C938        C939   1.404       .  A
C938        H954   1.084       .  S
C939        C949   1.401       .  A
C939        C940   1.411       .  A
C940        C946   1.413       .  A
C940        C941   1.411       .  A
C941        C943   1.410       .  A
C941        C942   1.413       .  A
C942        C950   1.404       .  A
C943        C952   1.400       .  A
C943        C944   1.404       .  A
C944        C945   1.398       .  A
C944        H955   1.084       .  S
C945        C946   1.403       .  A
C945        H956   1.084       .  S
C946        C947   1.403       .  A
C947        C948   1.406       .  A
C947        H957   1.084       .  S
C948        C949   1.408       .  A
C949        H958   1.085       .  S
C950        C951   1.404       .  A
C950        H959   1.084       .  S
C951        C952   1.408       .  A
C952        H960   1.085       .  S
C961        C962   1.401       .  A
C961        C966   1.404       .  A
C961        H977   1.083       .  S
C962        C963   1.404       .  A
C962        H978   1.084       .  S
C963        C973   1.406       .  A
C963        C964   1.412       .  A
C964        C970   1.413       .  A
C964        C965   1.414       .  A
C965        C967   1.411       .  A
C965        C966   1.413       .  A
C966        C974   1.408       .  A
C967        C976   1.403       .  A
C967        C968   1.404       .  A
C968        C969   1.399       .  A
C968        H979   1.083       .  S
C969        C970   1.403       .  A
C969        H980   1.084       .  S
C970        C971   1.405       .  A
C971        C972   1.405   1_556  A
C971        H981   1.085   1_556  S
C972        C973   1.407   1_554  A
C973        H982   1.084   1_556  S
C974        C975   1.407       .  A
C974        H983   1.084       .  S
C975        C976   1.407       .  A
C976        H984   1.084       .  S
C985        C986   1.400       .  A
C985        C990   1.404       .  A
C985       H1001   1.084       .  S
C986        C987   1.404       .  A
C986       H1002   1.084       .  S
C987        C997   1.404       .  A
C987        C988   1.411       .  A
C988        C994   1.412       .  A
C988        C989   1.414       .  A
C989        C991   1.412       .  A
C989        C990   1.412       .  A
C990        C998   1.405       .  A
C991       C1000   1.406       .  A
C991        C992   1.404       .  A
C992        C993   1.400       .  A
C992       H1003   1.083       .  S
C993        C994   1.404       .  A
C993       H1004   1.083       .  S
C994        C995   1.406       .  A
C995        C996   1.406       .  A
C995       H1005   1.084       .  S
C996        C997   1.408       .  A
C997       H1006   1.085       .  S
C998        C999   1.406       .  A
C998       H1007   1.085       .  S
C999       C1000   1.405       .  A
C1000      H1008   1.084       .  S
C1009      C1010   1.403       .  A
C1009      C1014   1.405       .  A
C1009      H1025   1.083       .  S
C1010      C1011   1.405       .  A
C1010      H1026   1.083       .  S
C1011      C1021   1.409       .  A
C1011      C1012   1.412       .  A
C1012      C1018   1.411       .  A
C1012      C1013   1.415       .  A
C1013      C1015   1.410       .  A
C1013      C1014   1.412       .  A
C1014      C1022   1.411       .  A
C1015      C1024   1.402       .  A
C1015      C1016   1.403       .  A
C1016      C1017   1.398       .  A
C1016      H1027   1.084       .  S
C1017      C1018   1.403       .  A
C1017      H1028   1.084       .  S
C1018      C1019   1.402       .  A
C1019      C1020   1.409       .  A
C1019      H1029   1.084       .  S
C1020      C1021   1.409       .  A
C1021      H1030   1.084       .  S
C1022      C1023   1.410       .  A
C1022      H1031   1.084       .  S
C1023      C1024   1.410       .  A
C1024      H1032   1.084       .  S
C1033      C1034   1.397       .  A
C1033      C1038   1.403       .  A
C1033      H1049   1.084       .  S
C1034      C1035   1.403       .  A
C1034      H1050   1.084       .  S
C1035      C1045   1.400       .  A
C1035      C1036   1.411       .  A
C1036      C1042   1.411       .  A
C1036      C1037   1.411       .  A
C1037      C1039   1.412       .  A
C1037      C1038   1.410       .  A
C1038      C1046   1.399       .  A
C1039      C1048   1.405       .  A
C1039      C1040   1.404       .  A
C1040      C1041   1.400       .  A
C1040      H1051   1.084       .  S
C1041      C1042   1.404       .  A
C1041      H1052   1.083       .  S
C1042      C1043   1.404       .  A
C1043      C1044   1.407       .  A
C1043      H1053   1.084       .  S
C1044      C1045   1.406       .  A
C1045      H1054   1.084       .  S
C1046      C1047   1.408       .  A
C1046      H1055   1.084       .  S
C1047      C1048   1.407       .  A
C1048      H1056   1.084       .  S
C1057      C1058   1.399       .  A
C1057      C1062   1.403       .  A
C1057      H1073   1.084       .  S
C1058      C1059   1.403       .  A
C1058      H1074   1.083       .  S
C1059      C1069   1.404       .  A
C1059      C1060   1.412       .  A
C1060      C1066   1.412       .  A
C1060      C1061   1.413       .  A
C1061      C1063   1.412       .  A
C1061      C1062   1.412       .  A
C1062      C1070   1.404       .  A
C1063      C1072   1.405       .  A
C1063      C1064   1.404       .  A
C1064      C1065   1.400       .  A
C1064      H1075   1.084       .  S
C1065      C1066   1.405       .  A
C1065      H1076   1.084       .  S
C1066      C1067   1.405       .  A
C1067      C1068   1.409       .  A
C1067      H1077   1.084       .  S
C1068      C1069   1.405       .  A
C1069      H1078   1.084       .  S
C1070      C1071   1.404       .  A
C1070      H1079   1.084       .  S
C1071      C1072   1.406       .  A
C1072      H1080   1.085       .  S
C1081      C1082   1.399       .  A
C1081      C1086   1.404       .  A
C1081      H1097   1.083       .  S
C1082      C1083   1.403       .  A
C1082      H1098   1.084       .  S
C1083      C1093   1.403       .  A
C1083      C1084   1.412       .  A
C1084      C1090   1.413       .  A
C1084      C1085   1.411       .  A
C1085      C1087   1.410       .  A
C1085      C1086   1.412       .  A
C1086      C1094   1.405       .  A
C1087      C1096   1.401       .  A
C1087      C1088   1.404       .  A
C1088      C1089   1.398       .  A
C1088      H1099   1.084       .  S
C1089      C1090   1.403       .  A
C1089      H1100   1.084       .  S
C1090      C1091   1.402       .  A
C1091      C1092   1.403       .  A
C1091      H1101   1.085       .  S
C1092      C1093   1.403       .  A
C1093      H1102   1.084       .  S
C1094      C1095   1.406       .  A
C1094      H1103   1.084       .  S
C1095      C1096   1.408       .  A
C1096      H1104   1.084       .  S
C1105      C1106   1.397       .  A
C1105      C1110   1.403   1_554  A
C1105      H1121   1.084       .  S
C1106      C1107   1.403       .  A
C1106      H1122   1.084       .  S
C1107      C1117   1.396       .  A
C1107      C1108   1.410   1_554  A
C1108      C1114   1.413       .  A
C1108      C1109   1.406       .  A
C1109      C1111   1.410       .  A
C1109      C1110   1.413       .  A
C1110      C1118   1.399       .  A
C1111      C1120   1.395       .  A
C1111      C1112   1.403       .  A
C1112      C1113   1.395       .  A
C1112      H1123   1.084       .  S
C1113      C1114   1.402       .  A
C1113      H1124   1.084       .  S
C1114      C1115   1.398       .  A
C1115      C1116   1.401   1_556  A
C1115      H1125   1.085       .  S
C1116      C1117   1.405       .  A
C1117      H1126   1.085       .  S
C1118      C1119   1.404       .  A
C1118      H1127   1.084       .  S
C1119      C1120   1.405       .  A
C1120      H1128   1.084       .  S
C1129      C1130   1.402       .  A
C1129      C1134   1.406       .  A
C1129      H1145   1.084       .  S
C1130      C1131   1.405       .  A
C1130      H1146   1.084       .  S
C1131      C1141   1.409       .  A
C1131      C1132   1.413       .  A
C1132      C1138   1.410       .  A
C1132      C1133   1.415       .  A
C1133      C1135   1.414       .  A
C1133      C1134   1.411       .  A
C1134      C1142   1.407       .  A
C1135      C1144   1.406       .  A
C1135      C1136   1.403       .  A
C1136      C1137   1.398       .  A
C1136      H1147   1.084       .  S
C1137      C1138   1.403       .  A
C1137      H1148   1.084       .  S
C1138      C1139   1.401       .  A
C1139      C1140   1.407       .  A
C1139      H1149   1.085       .  S
C1140      C1141   1.408       .  A
C1141      H1150   1.084       .  S
C1142      C1143   1.411       .  A
C1142      H1151   1.085       .  S
C1143      C1144   1.405       .  A
C1144      H1152   1.084       .  S
C1153      C1154   1.398       .  A
C1153      C1158   1.403       .  A
C1153      H1169   1.084       .  S
C1154      C1155   1.403       .  A
C1154      H1170   1.084       .  S
C1155      C1165   1.402       .  A
C1155      C1156   1.412       .  A
C1156      C1162   1.412       .  A
C1156      C1157   1.412       .  A
C1157      C1159   1.412       .  A
C1157      C1158   1.412       .  A
C1158      C1166   1.401       .  A
C1159      C1168   1.404       .  A
C1159      C1160   1.404       .  A
C1160      C1161   1.400       .  A
C1160      H1171   1.084       .  S
C1161      C1162   1.404       .  A
C1161      H1172   1.083       .  S
C1162      C1163   1.405       .  A
C1163      C1164   1.406       .  A
C1163      H1173   1.084       .  S
C1164      C1165   1.404       .  A
C1165      H1174   1.085       .  S
C1166      C1167   1.405       .  A
C1166      H1175   1.085       .  S
C1167      C1168   1.406       .  A
C1168      H1176   1.084       .  S
C1177      C1178   1.401       .  A
C1177      C1182   1.404       .  A
C1177      H1193   1.084       .  S
C1178      C1179   1.405       .  A
C1178      H1194   1.084       .  S
C1179      C1189   1.406       .  A
C1179      C1180   1.411       .  A
C1180      C1186   1.412       .  A
C1180      C1181   1.415       .  A
C1181      C1183   1.413       .  A
C1181      C1182   1.412       .  A
C1182      C1190   1.406   1_554  A
C1183      C1192   1.407   1_554  A
C1183      C1184   1.404       .  A
C1184      C1185   1.400       .  A
C1184      H1195   1.083       .  S
C1185      C1186   1.404       .  A
C1185      H1196   1.083       .  S
C1186      C1187   1.406       .  A
C1187      C1188   1.407       .  A
C1187      H1197   1.084       .  S
C1188      C1189   1.410       .  A
C1189      H1198   1.084       .  S
C1190      C1191   1.407       .  A
C1190      H1199   1.085       .  S
C1191      C1192   1.405       .  A
C1192      H1200   1.084       .  S
C1201      C1202   1.397       .  A
C1201      C1206   1.403       .  A
C1201      H1217   1.084       .  S
C1202      C1203   1.403       .  A
C1202      H1218   1.084       .  S
C1203      C1213   1.403       .  A
C1203      C1204   1.413       .  A
C1204      C1210   1.410       .  A
C1204      C1205   1.411       .  A
C1205      C1207   1.413       .  A
C1205      C1206   1.411       .  A
C1206      C1214   1.399       .  A
C1207      C1216   1.404       .  A
C1207      C1208   1.404       .  A
C1208      C1209   1.399       .  A
C1208      H1219   1.084       .  S
C1209      C1210   1.404       .  A
C1209      H1220   1.084       .  S
C1210      C1211   1.402       .  A
C1211      C1212   1.409       .  A
C1211      H1221   1.084       .  S
C1212      C1213   1.405       .  A
C1213      H1222   1.084       .  S
C1214      C1215   1.404       .  A
C1214      H1223   1.085       .  S
C1215      C1216   1.406       .  A
C1216      H1224   1.085       .  S
C1225      C1226   1.395       .  A
C1225      C1230   1.402       .  A
C1225      H1241   1.084       .  S
C1226      C1227   1.402       .  A
C1226      H1242   1.084       .  S
C1227      C1237   1.395       .  A
C1227      C1228   1.410       .  A
C1228      C1234   1.414       .  A
C1228      C1229   1.410       .  A
C1229      C1231   1.411       .  A
C1229      C1230   1.413       .  A
C1230      C1238   1.399       .  A
C1231      C1240   1.404       .  A
C1231      C1232   1.405       .  A
C1232      C1233   1.401       .  A
C1232      H1243   1.083       .  S
C1233      C1234   1.403       .  A
C1233      H1244   1.084       .  S
C1234      C1235   1.406       .  A
C1235      C1236   1.404       .  A
C1235      H1245   1.084       .  S
C1236      C1237   1.404       .  A
C1237      H1246   1.085       .  S
C1238      C1239   1.403       .  A
C1238      H1247   1.084       .  S
C1239      C1240   1.410       .  A
C1240      H1248   1.084       .  S
C1249      C1250   1.399       .  A
C1249      C1254   1.404       .  A
C1249      H1265   1.084       .  S
C1250      C1251   1.404       .  A
C1250      H1266   1.084       .  S
C1251      C1261   1.404       .  A
C1251      C1252   1.410       .  A
C1252      C1258   1.413       .  A
C1252      C1253   1.417       .  A
C1253      C1255   1.412       .  A
C1253      C1254   1.410       .  A
C1254      C1262   1.404       .  A
C1255      C1264   1.412       .  A
C1255      C1256   1.405       .  A
C1256      C1257   1.403       .  A
C1256      H1267   1.083       .  S
C1257      C1258   1.405       .  A
C1257      H1268   1.083       .  S
C1258      C1259   1.412       .  A
C1259      C1260   1.408       .  A
C1259      H1269   1.084       .  S
C1260      C1261   1.411       .  A
C1261      H1270   1.084       .  S
C1262      C1263   1.412       .  A
C1262      H1271   1.084       .  S
C1263      C1264   1.409       .  A
C1264      H1272   1.083       .  S
C1273      C1274   1.397       .  A
C1273      C1278   1.403       .  A
C1273      H1289   1.084       .  S
C1274      C1275   1.403       .  A
C1274      H1290   1.084       .  S
C1275      C1285   1.401       .  A
C1275      C1276   1.410       .  A
C1276      C1282   1.412       .  A
C1276      C1277   1.416       .  A
C1277      C1279   1.413       .  A
C1277      C1278   1.409       .  A
C1278      C1286   1.400       .  A
C1279      C1288   1.414       .  A
C1279      C1280   1.405       .  A
C1280      C1281   1.404       .  A
C1280      H1291   1.083       .  S
C1281      C1282   1.405       .  A
C1281      H1292   1.083       .  S
C1282      C1283   1.412       .  A
C1283      C1284   1.410       .  A
C1283      H1293   1.084       .  S
C1284      C1285   1.410       .  A
C1285      H1294   1.084       .  S
C1286      C1287   1.411       .  A
C1286      H1295   1.084       .  S
C1287      C1288   1.410       .  A
C1288      H1296   1.083       .  S
C1297      C1298   1.398       .  A
C1297      C1302   1.403       .  A
C1297      H1313   1.083       .  S
C1298      C1299   1.403       .  A
C1298      H1314   1.084       .  S
C1299      C1309   1.402       .  A
C1299      C1300   1.412       .  A
C1300      C1306   1.412       .  A
C1300      C1301   1.413       .  A
C1301      C1303   1.412       .  A
C1301      C1302   1.411       .  A
C1302      C1310   1.403       .  A
C1303      C1312   1.407       .  A
C1303      C1304   1.405       .  A
C1304      C1305   1.401       .  A
C1304      H1315   1.084       .  S
C1305      C1306   1.405       .  A
C1305      H1316   1.083       .  S
C1306      C1307   1.406       .  A
C1307      C1308   1.408       .  A
C1307      H1317   1.084       .  S
C1308      C1309   1.404       .  A
C1309      H1318   1.085       .  S
C1310      C1311   1.405       .  A
C1310      H1319   1.084       .  S
C1311      C1312   1.407       .  A
C1312      H1320   1.084       .  S
C1321      C1322   1.399       .  A
C1321      C1326   1.403       .  A
C1321      H1337   1.084       .  S
C1322      C1323   1.403       .  A
C1322      H1338   1.083       .  S
C1323      C1333   1.404       .  A
C1323      C1324   1.412       .  A
C1324      C1330   1.412       .  A
C1324      C1325   1.413       .  A
C1325      C1327   1.412       .  A
C1325      C1326   1.411       .  A
C1326      C1334   1.403       .  A
C1327      C1336   1.406       .  A
C1327      C1328   1.404       .  A
C1328      C1329   1.401       .  A
C1328      H1339   1.084       .  S
C1329      C1330   1.404       .  A
C1329      H1340   1.083       .  S
C1330      C1331   1.405       .  A
C1331      C1332   1.406       .  A
C1331      H1341   1.084       .  S
C1332      C1333   1.404       .  A
C1333      H1342   1.084       .  S
C1334      C1335   1.406       .  A
C1334      H1343   1.085       .  S
C1335      C1336   1.407       .  A
C1336      H1344   1.085       .  S
C1345      C1346   1.405       .  A
C1345      C1350   1.406       .  A
C1345      H1361   1.083       .  S
C1346      C1347   1.406       .  A
C1346      H1362   1.083       .  S
C1347      C1357   1.414       .  A
C1347      C1348   1.412       .  A
C1348      C1354   1.411       .  A
C1348      C1349   1.418       .  A
C1349      C1351   1.410       .  A
C1349      C1350   1.413       .  A
C1350      C1358   1.414       .  A
C1351      C1360   1.403       .  A
C1351      C1352   1.403       .  A
C1352      C1353   1.398       .  A
C1352      H1363   1.084       .  S
C1353      C1354   1.403       .  A
C1353      H1364   1.084       .  S
C1354      C1355   1.404       .  A
C1355      C1356   1.410       .  A
C1355      H1365   1.084       .  S
C1356      C1357   1.413       .  A
C1357      H1366   1.084       .  S
C1358      C1359   1.411       .  A
C1358      H1367   1.084       .  S
C1359      C1360   1.409       .  A
C1360      H1368   1.084       .  S
C1369      C1370   1.395       .  A
C1369      C1374   1.402       .  A
C1369      H1385   1.084       .  S
C1370      C1371   1.402       .  A
C1370      H1386   1.084       .  S
C1371      C1381   1.398       .  A
C1371      C1372   1.410       .  A
C1372      C1378   1.412       .  A
C1372      C1373   1.416       .  A
C1373      C1375   1.413       .  A
C1373      C1374   1.409       .  A
C1374      C1382   1.398       .  A
C1375      C1384   1.416       .  A
C1375      C1376   1.406       .  A
C1376      C1377   1.406       .  A
C1376      H1387   1.083       .  S
C1377      C1378   1.406       .  A
C1377      H1388   1.083       .  S
C1378      C1379   1.415       .  A
C1379      C1380   1.411       .  A
C1379      H1389   1.084       .  S
C1380      C1381   1.408       .  A
C1381      H1390   1.084       .  S
C1382      C1383   1.410       .  A
C1382      H1391   1.084       .  S
C1383      C1384   1.412       .  A
C1384      H1392   1.084       .  S
C1393      C1394   1.400       .  A
C1393      C1398   1.404   1_554  A
C1393      H1409   1.084       .  S
C1394      C1395   1.405       .  A
C1394      H1410   1.084       .  S
C1395      C1405   1.403       .  A
C1395      C1396   1.411   1_554  A
C1396      C1402   1.413       .  A
C1396      C1397   1.413       .  A
C1397      C1399   1.411       .  A
C1397      C1398   1.413       .  A
C1398      C1406   1.405       .  A
C1399      C1408   1.402       .  A
C1399      C1400   1.404       .  A
C1400      C1401   1.399       .  A
C1400      H1411   1.084       .  S
C1401      C1402   1.403       .  A
C1401      H1412   1.083       .  S
C1402      C1403   1.405       .  A
C1403      C1404   1.404   1_556  A
C1403      H1413   1.084       .  S
C1404      C1405   1.409       .  A
C1405      H1414   1.085       .  S
C1406      C1407   1.407       .  A
C1406      H1415   1.084       .  S
C1407      C1408   1.408       .  A
C1408      H1416   1.085       .  S
C1417      C1418   1.400       .  A
C1417      C1422   1.404       .  A
C1417      H1433   1.084       .  S
C1418      C1419   1.404       .  A
C1418      H1434   1.084       .  S
C1419      C1429   1.404       .  A
C1419      C1420   1.411       .  A
C1420      C1426   1.413       .  A
C1420      C1421   1.415       .  A
C1421      C1423   1.411       .  A
C1421      C1422   1.412       .  A
C1422      C1430   1.406       .  A
C1423      C1432   1.405       .  A
C1423      C1424   1.405       .  A
C1424      C1425   1.401       .  A
C1424      H1435   1.084       .  S
C1425      C1426   1.404       .  A
C1425      H1436   1.083       .  S
C1426      C1427   1.407       .  A
C1427      C1428   1.407       .  A
C1427      H1437   1.084       .  S
C1428      C1429   1.407       .  A
C1429      H1438   1.085       .  S
C1430      C1431   1.408       .  A
C1430      H1439   1.084       .  S
C1431      C1432   1.410       .  A
C1432      H1440   1.084       .  S
C1441      C1442   1.404       .  A
C1441      C1446   1.405       .  A
C1441      H1457   1.083       .  S
C1442      C1443   1.405       .  A
C1442      H1458   1.083       .  S
C1443      C1453   1.412       .  A
C1443      C1444   1.412       .  A
C1444      C1450   1.411       .  A
C1444      C1445   1.419       .  A
C1445      C1447   1.410       .  A
C1445      C1446   1.412       .  A
C1446      C1454   1.413       .  A
C1447      C1456   1.406       .  A
C1447      C1448   1.404       .  A
C1448      C1449   1.400       .  A
C1448      H1459   1.084       .  S
C1449      C1450   1.404       .  A
C1449      H1460   1.084       .  S
C1450      C1451   1.406       .  A
C1451      C1452   1.412       .  A
C1451      H1461   1.084       .  S
C1452      C1453   1.411       .  A
C1453      H1462   1.084       .  S
C1454      C1455   1.411       .  A
C1454      H1463   1.084       .  S
C1455      C1456   1.412       .  A
C1456      H1464   1.084       .  S
C1465      C1466   1.402       .  A
C1465      C1470   1.404       .  A
C1465      H1481   1.083       .  S
C1466      C1467   1.405       .  A
C1466      H1482   1.083       .  S
C1467      C1477   1.408       .  A
C1467      C1468   1.411       .  A
C1468      C1474   1.411       .  A
C1468      C1469   1.413       .  A
C1469      C1471   1.409       .  A
C1469      C1470   1.413       .  A
C1470      C1478   1.410       .  A
C1471      C1480   1.398       .  A
C1471      C1472   1.403       .  A
C1472      C1473   1.397       .  A
C1472      H1483   1.084       .  S
C1473      C1474   1.403       .  A
C1473      H1484   1.083       .  S
C1474      C1475   1.401       .  A
C1475      C1476   1.409       .  A
C1475      H1485   1.084       .  S
C1476      C1477   1.409       .  A
C1477      H1486   1.084       .  S
C1478      C1479   1.407       .  A
C1478      H1487   1.084       .  S
C1479      C1480   1.408       .  A
C1480      H1488   1.085       .  S
C1489      C1490   1.399       .  A
C1489      C1494   1.404       .  A
C1489      H1505   1.084       .  S
C1490      C1491   1.404       .  A
C1490      H1506   1.084       .  S
C1491      C1501   1.406       .  A
C1491      C1492   1.414       .  A
C1492      C1498   1.410       .  A
C1492      C1493   1.411       .  A
C1493      C1495   1.414       .  A
C1493      C1494   1.410       .  A
C1494      C1502   1.400       .  A
C1495      C1504   1.403       .  A
C1495      C1496   1.402       .  A
C1496      C1497   1.397       .  A
C1496      H1507   1.083       .  S
C1497      C1498   1.404       .  A
C1497      H1508   1.084       .  S
C1498      C1499   1.398       .  A
C1499      C1500   1.407       .  A
C1499      H1509   1.085       .  S
C1500      C1501   1.406       .  A
C1501      H1510   1.084       .  S
C1502      C1503   1.407       .  A
C1502      H1511   1.085       .  S
C1503      C1504   1.402       .  A
C1504      H1512   1.084       .  S
C1513      C1514   1.403       .  A
C1513      C1518   1.406       .  A
C1513      H1529   1.084       .  S
C1514      C1515   1.406       .  A
C1514      H1530   1.084       .  S
C1515      C1525   1.408       .  A
C1515      C1516   1.412       .  A
C1516      C1522   1.411       .  A
C1516      C1517   1.411       .  A
C1517      C1519   1.412       .  A
C1517      C1518   1.412       .  A
C1518      C1526   1.407       .  A
C1519      C1528   1.397       .  A
C1519      C1520   1.401       .  A
C1520      C1521   1.394       .  A
C1520      H1531   1.083       .  S
C1521      C1522   1.401       .  A
C1521      H1532   1.083       .  S
C1522      C1523   1.396       .  A
C1523      C1524   1.400       .  A
C1523      H1533   1.085       .  S
C1524      C1525   1.409       .  A
C1525      H1534   1.084       .  S
C1526      C1527   1.408       .  A
C1526      H1535   1.085       .  S
C1527      C1528   1.401       .  A
C1528      H1536   1.085       .  S
C1537      C1538   1.399       .  A
C1537      C1542   1.403       .  A
C1537      H1553   1.084       .  S
C1538      C1539   1.404       .  A
C1538      H1554   1.084       .  S
C1539      C1549   1.404       .  A
C1539      C1540   1.411       .  A
C1540      C1546   1.412       .  A
C1540      C1541   1.415       .  A
C1541      C1543   1.412       .  A
C1541      C1542   1.412       .  A
C1542      C1550   1.404       .  A
C1543      C1552   1.409       .  A
C1543      C1544   1.405       .  A
C1544      C1545   1.402       .  A
C1544      H1555   1.084       .  S
C1545      C1546   1.405       .  A
C1545      H1556   1.083       .  S
C1546      C1547   1.409       .  A
C1547      C1548   1.408   1_554  A
C1547      H1557   1.084   1_554  S
C1548      C1549   1.407   1_556  A
C1549      H1558   1.084       .  S
C1550      C1551   1.406       .  A
C1550      H1559   1.085       .  S
C1551      C1552   1.408       .  A
C1552      H1560   1.084       .  S
C1561      C1562   1.397       .  A
C1561      C1566   1.402       .  A
C1561      H1577   1.084       .  S
C1562      C1563   1.403       .  A
C1562      H1578   1.084       .  S
C1563      C1573   1.398       .  A
C1563      C1564   1.410       .  A
C1564      C1570   1.413       .  A
C1564      C1565   1.409       .  A
C1565      C1567   1.410       .  A
C1565      C1566   1.413       .  A
C1566      C1574   1.401       .  A
C1567      C1576   1.399       .  A
C1567      C1568   1.404       .  A
C1568      C1569   1.398       .  A
C1568      H1579   1.084       .  S
C1569      C1570   1.403       .  A
C1569      H1580   1.083       .  S
C1570      C1571   1.402       .  A
C1571      C1572   1.404       .  A
C1571      H1581   1.084       .  S
C1572      C1573   1.406       .  A
C1573      H1582   1.085       .  S
C1574      C1575   1.404       .  A
C1574      H1583   1.084       .  S
C1575      C1576   1.407       .  A
C1576      H1584   1.085       .  S
C1585      C1586   1.399       .  A
C1585      C1590   1.404       .  A
C1585      H1601   1.084       .  S
C1586      C1587   1.403       .  A
C1586      H1602   1.084       .  S
C1587      C1597   1.403       .  A
C1587      C1588   1.411       .  A
C1588      C1594   1.412       .  A
C1588      C1589   1.416       .  A
C1589      C1591   1.412       .  A
C1589      C1590   1.410       .  A
C1590      C1598   1.404       .  A
C1591      C1600   1.411       .  A
C1591      C1592   1.405       .  A
C1592      C1593   1.403       .  A
C1592      H1603   1.083       .  S
C1593      C1594   1.405       .  A
C1593      H1604   1.084       .  S
C1594      C1595   1.410       .  A
C1595      C1596   1.410       .  A
C1595      H1605   1.084       .  S
C1596      C1597   1.410       .  A
C1597      H1606   1.084       .  S
C1598      C1599   1.411       .  A
C1598      H1607   1.084       .  S
C1599      C1600   1.410       .  A
C1600      H1608   1.084       .  S
C1609      C1610   1.401       .  A
C1609      C1614   1.404       .  A
C1609      H1625   1.083       .  S
C1610      C1611   1.404       .  A
C1610      H1626   1.083       .  S
C1611      C1621   1.409       .  A
C1611      C1612   1.412       .  A
C1612      C1618   1.410       .  A
C1612      C1613   1.415       .  A
C1613      C1615   1.411       .  A
C1613      C1614   1.411       .  A
C1614      C1622   1.407       .  A
C1615      C1624   1.404       .  A
C1615      C1616   1.404       .  A
C1616      C1617   1.399       .  A
C1616      H1627   1.084       .  S
C1617      C1618   1.404       .  A
C1617      H1628   1.084       .  S
C1618      C1619   1.402       .  A
C1619      C1620   1.411       .  A
C1619      H1629   1.084       .  S
C1620      C1621   1.408       .  A
C1621      H1630   1.084       .  S
C1622      C1623   1.408       .  A
C1622      H1631   1.084       .  S
C1623      C1624   1.410       .  A
C1624      H1632   1.084       .  S
C1633      C1634   1.400       .  A
C1633      C1638   1.404       .  A
C1633      H1649   1.084       .  S
C1634      C1635   1.404       .  A
C1634      H1650   1.083       .  S
C1635      C1645   1.405       .  A
C1635      C1636   1.412       .  A
C1636      C1642   1.411       .  A
C1636      C1637   1.413       .  A
C1637      C1639   1.412       .  A
C1637      C1638   1.412       .  A
C1638      C1646   1.404       .  A
C1639      C1648   1.404       .  A
C1639      C1640   1.404       .  A
C1640      C1641   1.400       .  A
C1640      H1651   1.084       .  S
C1641      C1642   1.404       .  A
C1641      H1652   1.084       .  S
C1642      C1643   1.404       .  A
C1643      C1644   1.407       .  A
C1643      H1653   1.084       .  S
C1644      C1645   1.406       .  A
C1645      H1654   1.084       .  S
C1646      C1647   1.405       .  A
C1646      H1655   1.084       .  S
C1647      C1648   1.405       .  A
C1648      H1656   1.085       .  S
C1657      C1658   1.399   1_554  A
C1657      C1662   1.404       .  A
C1657      H1673   1.084       .  S
C1658      C1659   1.403       .  A
C1658      H1674   1.083       .  S
C1659      C1669   1.403       .  A
C1659      C1660   1.412       .  A
C1660      C1666   1.412       .  A
C1660      C1661   1.413   1_556  A
C1661      C1663   1.412       .  A
C1661      C1662   1.412       .  A
C1662      C1670   1.404       .  A
C1663      C1672   1.404       .  A
C1663      C1664   1.404       .  A
C1664      C1665   1.400       .  A
C1664      H1675   1.084       .  S
C1665      C1666   1.404   1_554  A
C1665      H1676   1.083   1_554  S
C1666      C1667   1.404       .  A
C1667      C1668   1.406       .  A
C1667      H1677   1.084       .  S
C1668      C1669   1.405       .  A
C1669      H1678   1.085       .  S
C1670      C1671   1.406       .  A
C1670      H1679   1.085       .  S
C1671      C1672   1.405       .  A
C1672      H1680   1.084       .  S
C1681      C1682   1.402       .  A
C1681      C1686   1.405       .  A
C1681      H1697   1.084       .  S
C1682      C1683   1.405       .  A
C1682      H1698   1.083       .  S
C1683      C1693   1.408       .  A
C1683      C1684   1.412       .  A
C1684      C1690   1.411       .  A
C1684      C1685   1.414       .  A
C1685      C1687   1.411       .  A
C1685      C1686   1.412       .  A
C1686      C1694   1.407       .  A
C1687      C1696   1.402       .  A
C1687      C1688   1.403       .  A
C1688      C1689   1.398       .  A
C1688      H1699   1.084       .  S
C1689      C1690   1.403       .  A
C1689      H1700   1.084       .  S
C1690      C1691   1.403       .  A
C1691      C1692   1.407       .  A
C1691      H1701   1.084       .  S
C1692      C1693   1.408       .  A
C1693      H1702   1.084       .  S
C1694      C1695   1.409       .  A
C1694      H1703   1.084       .  S
C1695      C1696   1.407       .  A
C1696      H1704   1.085       .  S
C1705      C1706   1.405   1_545  A
C1705      C1710   1.406       .  A
C1705      H1721   1.084       .  S
C1706      C1707   1.407       .  A
C1706      H1722   1.083       .  S
C1707      C1717   1.413       .  A
C1707      C1708   1.412       .  A
C1708      C1714   1.410       .  A
C1708      C1709   1.412   1_565  A
C1709      C1711   1.409       .  A
C1709      C1710   1.413       .  A
C1710      C1718   1.413       .  A
C1711      C1720   1.393       .  A
C1711      C1712   1.401       .  A
C1712      C1713   1.392   1_545  A
C1712      H1723   1.084       .  S
C1713      C1714   1.401       .  A
C1713      H1724   1.084       .  S
C1714      C1715   1.394       .  A
C1715      C1716   1.406       .  A
C1715      H1725   1.084       .  S
C1716      C1717   1.412       .  A
C1717      H1726   1.084       .  S
C1718      C1719   1.410       .  A
C1718      H1727   1.084       .  S
C1719      C1720   1.406       .  A
C1720      H1728   1.084       .  S
C1729      C1730   1.399       .  A
C1729      C1734   1.404       .  A
C1729      H1745   1.083       .  S
C1730      C1731   1.403       .  A
C1730      H1746   1.084       .  S
C1731      C1741   1.404       .  A
C1731      C1732   1.411       .  A
C1732      C1738   1.412       .  A
C1732      C1733   1.416       .  A
C1733      C1735   1.412       .  A
C1733      C1734   1.411       .  A
C1734      C1742   1.404       .  A
C1735      C1744   1.409       .  A
C1735      C1736   1.405       .  A
C1736      C1737   1.402       .  A
C1736      H1747   1.083       .  S
C1737      C1738   1.405       .  A
C1737      H1748   1.083       .  S
C1738      C1739   1.409       .  A
C1739      C1740   1.410       .  A
C1739      H1749   1.084       .  S
C1740      C1741   1.409       .  A
C1741      H1750   1.084       .  S
C1742      C1743   1.409       .  A
C1742      H1751   1.084       .  S
C1743      C1744   1.411       .  A
C1744      H1752   1.084       .  S
C1753      C1754   1.395   1_565  A
C1753      C1758   1.402       .  A
C1753      H1769   1.083       .  S
C1754      C1755   1.402       .  A
C1754      H1770   1.084       .  S
C1755      C1765   1.398       .  A
C1755      C1756   1.410       .  A
C1756      C1762   1.413       .  A
C1756      C1757   1.416   1_545  A
C1757      C1759   1.412       .  A
C1757      C1758   1.411       .  A
C1758      C1766   1.399       .  A
C1759      C1768   1.415       .  A
C1759      C1760   1.407       .  A
C1760      C1761   1.406   1_565  A
C1760      H1771   1.083       .  S
C1761      C1762   1.406       .  A
C1761      H1772   1.083       .  S
C1762      C1763   1.416       .  A
C1763      C1764   1.411       .  A
C1763      H1773   1.084       .  S
C1764      C1765   1.407       .  A
C1765      H1774   1.085       .  S
C1766      C1767   1.407       .  A
C1766      H1775   1.084       .  S
C1767      C1768   1.413       .  A
C1768      H1776   1.084       .  S
C1777      C1778   1.399   1_556  A
C1777      C1782   1.403       .  A
C1777      H1793   1.083       .  S
C1778      C1779   1.403       .  A
C1778      H1794   1.083       .  S
C1779      C1789   1.403       .  A
C1779      C1780   1.411       .  A
C1780      C1786   1.413       .  A
C1780      C1781   1.413   1_554  A
C1781      C1783   1.411       .  A
C1781      C1782   1.412       .  A
C1782      C1790   1.404       .  A
C1783      C1792   1.404       .  A
C1783      C1784   1.404       .  A
C1784      C1785   1.400   1_556  A
C1784      H1795   1.084       .  S
C1785      C1786   1.404       .  A
C1785      H1796   1.083       .  S
C1786      C1787   1.406       .  A
C1787      C1788   1.406       .  A
C1787      H1797   1.084       .  S
C1788      C1789   1.405       .  A
C1789      H1798   1.084       .  S
C1790      C1791   1.406       .  A
C1790      H1799   1.084       .  S
C1791      C1792   1.407       .  A
C1792      H1800   1.084       .  S
C1801      C1802   1.400       .  A
C1801      C1806   1.404       .  A
C1801      H1817   1.083       .  S
C1802      C1803   1.403       .  A
C1802      H1818   1.084       .  S
C1803      C1813   1.405       .  A
C1803      C1804   1.413       .  A
C1804      C1810   1.411       .  A
C1804      C1805   1.411       .  A
C1805      C1807   1.412       .  A
C1805      C1806   1.412       .  A
C1806      C1814   1.403       .  A
C1807      C1816   1.402       .  A
C1807      C1808   1.403       .  A
C1808      C1809   1.398       .  A
C1808      H1819   1.084       .  S
C1809      C1810   1.403       .  A
C1809      H1820   1.084       .  S
C1810      C1811   1.400       .  A
C1811      C1812   1.406       .  A
C1811      H1821   1.085       .  S
C1812      C1813   1.405       .  A
C1813      H1822   1.085       .  S
C1814      C1815   1.405       .  A
C1814      H1823   1.084       .  S
C1815      C1816   1.403       .  A
C1816      H1824   1.085       .  S
C1825      C1826   1.399       .  A
C1825      C1830   1.404       .  A
C1825      H1841   1.084       .  S
C1826      C1827   1.403       .  A
C1826      H1842   1.084       .  S
C1827      C1837   1.404       .  A
C1827      C1828   1.411       .  A
C1828      C1834   1.411       .  A
C1828      C1829   1.415       .  A
C1829      C1831   1.412       .  A
C1829      C1830   1.410       .  A
C1830      C1838   1.403       .  A
C1831      C1840   1.409       .  A
C1831      C1832   1.404       .  A
C1832      C1833   1.402       .  A
C1832      H1843   1.083       .  S
C1833      C1834   1.404       .  A
C1833      H1844   1.083       .  S
C1834      C1835   1.407       .  A
C1835      C1836   1.408       .  A
C1835      H1845   1.084       .  S
C1836      C1837   1.408       .  A
C1837      H1846   1.084       .  S
C1838      C1839   1.410       .  A
C1838      H1847   1.084       .  S
C1839      C1840   1.409       .  A
C1840      H1848   1.084       .  S
C1849      C1850   1.399       .  A
C1849      C1854   1.404       .  A
C1849      H1865   1.083       .  S
C1850      C1851   1.403       .  A
C1850      H1866   1.084       .  S
C1851      C1861   1.405       .  A
C1851      C1852   1.413       .  A
C1852      C1858   1.411       .  A
C1852      C1853   1.411       .  A
C1853      C1855   1.412       .  A
C1853      C1854   1.411       .  A
C1854      C1862   1.402       .  A
C1855      C1864   1.402       .  A
C1855      C1856   1.403       .  A
C1856      C1857   1.398       .  A
C1856      H1867   1.084       .  S
C1857      C1858   1.403       .  A
C1857      H1868   1.084       .  S
C1858      C1859   1.399       .  A
C1859      C1860   1.406       .  A
C1859      H1869   1.085       .  S
C1860      C1861   1.405       .  A
C1861      H1870   1.084       .  S
C1862      C1863   1.409       .  A
C1862      H1871   1.084       .  S
C1863      C1864   1.406       .  A
C1864      H1872   1.084       .  S
C1873      C1874   1.401       .  A
C1873      C1878   1.405       .  A
C1873      H1889   1.083       .  S
C1874      C1875   1.404       .  A
C1874      H1890   1.084       .  S
C1875      C1885   1.407       .  A
C1875      C1876   1.413       .  A
C1876      C1882   1.411       .  A
C1876      C1877   1.414       .  A
C1877      C1879   1.413       .  A
C1877      C1878   1.411       .  A
C1878      C1886   1.404       .  A
C1879      C1888   1.405       .  A
C1879      C1880   1.403       .  A
C1880      C1881   1.399       .  A
C1880      H1891   1.084       .  S
C1881      C1882   1.404       .  A
C1881      H1892   1.084       .  S
C1882      C1883   1.402       .  A
C1883      C1884   1.407       .  A
C1883      H1893   1.085       .  S
C1884      C1885   1.407       .  A
C1885      H1894   1.084       .  S
C1886      C1887   1.409       .  A
C1886      H1895   1.084       .  S
C1887      C1888   1.405       .  A
C1888      H1896   1.084       .  S
C1897      C1898   1.397       .  A
C1897      C1902   1.403       .  A
C1897      H1913   1.084       .  S
C1898      C1899   1.403       .  A
C1898      H1914   1.084       .  S
C1899      C1909   1.401       .  A
C1899      C1900   1.411       .  A
C1900      C1906   1.411       .  A
C1900      C1901   1.414       .  A
C1901      C1903   1.412       .  A
C1901      C1902   1.410       .  A
C1902      C1910   1.400       .  A
C1903      C1912   1.410       .  A
C1903      C1904   1.405       .  A
C1904      C1905   1.403       .  A
C1904      H1915   1.084       .  S
C1905      C1906   1.405       .  A
C1905      H1916   1.083       .  S
C1906      C1907   1.409       .  A
C1907      C1908   1.410       .  A
C1907      H1917   1.084       .  S
C1908      C1909   1.408       .  A
C1909      H1918   1.084       .  S
C1910      C1911   1.409       .  A
C1910      H1919   1.084       .  S
C1911      C1912   1.410       .  A
C1912      H1920   1.084       .  S
C1921      C1922   1.397       .  A
C1921      C1926   1.403       .  A
C1921      H1937   1.084       .  S
C1922      C1923   1.403       .  A
C1922      H1938   1.084       .  S
C1923      C1933   1.401       .  A
C1923      C1924   1.412       .  A
C1924      C1930   1.411       .  A
C1924      C1925   1.410       .  A
C1925      C1927   1.413       .  A
C1925      C1926   1.411       .  A
C1926      C1934   1.399       .  A
C1927      C1936   1.402       .  A
C1927      C1928   1.403       .  A
C1928      C1929   1.399       .  A
C1928      H1939   1.084       .  S
C1929      C1930   1.404       .  A
C1929      H1940   1.084       .  S
C1930      C1931   1.401       .  A
C1931      C1932   1.407       .  A
C1931      H1941   1.084       .  S
C1932      C1933   1.405       .  A
C1933      H1942   1.084       .  S
C1934      C1935   1.406       .  A
C1934      H1943   1.085       .  S
C1935      C1936   1.404       .  A
C1936      H1944   1.084       .  S
C1945      C1946   1.401       .  A
C1945      C1950   1.405       .  A
C1945      H1961   1.084       .  S
C1946      C1947   1.404       .  A
C1946      H1962   1.084       .  S
C1947      C1957   1.408       .  A
C1947      C1948   1.414       .  A
C1948      C1954   1.410       .  A
C1948      C1949   1.412       .  A
C1949      C1951   1.414       .  A
C1949      C1950   1.410       .  A
C1950      C1958   1.403       .  A
C1951      C1960   1.403       .  A
C1951      C1952   1.402       .  A
C1952      C1953   1.397       .  A
C1952      H1963   1.084       .  S
C1953      C1954   1.403       .  A
C1953      H1964   1.084       .  S
C1954      C1955   1.399       .  A
C1955      C1956   1.406       .  A
C1955      H1965   1.085       .  S
C1956      C1957   1.406       .  A
C1957      H1966   1.084       .  S
C1958      C1959   1.410       .  A
C1958      H1967   1.085       .  S
C1959      C1960   1.404       .  A
C1960      H1968   1.084       .  S
C1969      C1970   1.399       .  A
C1969      C1974   1.403       .  A
C1969      H1985   1.083       .  S
C1970      C1971   1.403       .  A
C1970      H1986   1.084       .  S
C1971      C1981   1.404       .  A
C1971      C1972   1.412       .  A
C1972      C1978   1.412       .  A
C1972      C1973   1.414       .  A
C1973      C1975   1.412       .  A
C1973      C1974   1.411       .  A
C1974      C1982   1.403       .  A
C1975      C1984   1.409       .  A
C1975      C1976   1.405       .  A
C1976      C1977   1.402       .  A
C1976      H1987   1.084       .  S
C1977      C1978   1.405       .  A
C1977      H1988   1.084       .  S
C1978      C1979   1.407       .  A
C1979      C1980   1.407       .  A
C1979      H1989   1.084       .  S
C1980      C1981   1.404       .  A
C1981      H1990   1.085       .  S
C1982      C1983   1.406       .  A
C1982      H1991   1.084       .  S
C1983      C1984   1.409       .  A
C1984      H1992   1.084       .  S
C1993      C1994   1.399       .  A
C1993      C1998   1.403       .  A
C1993      H2009   1.084       .  S
C1994      C1995   1.403       .  A
C1994      H2010   1.083       .  S
C1995      C2005   1.404       .  A
C1995      C1996   1.412       .  A
C1996      C2002   1.412       .  A
C1996      C1997   1.413       .  A
C1997      C1999   1.411       .  A
C1997      C1998   1.412       .  A
C1998      C2006   1.404       .  A
C1999      C2008   1.404       .  A
C1999      C2000   1.404       .  A
C2000      C2001   1.400       .  A
C2000      H2011   1.083       .  S
C2001      C2002   1.404       .  A
C2001      H2012   1.084       .  S
C2002      C2003   1.406       .  A
C2003      C2004   1.406       .  A
C2003      H2013   1.085       .  S
C2004      C2005   1.405       .  A
C2005      H2014   1.084       .  S
C2006      C2007   1.405       .  A
C2006      H2015   1.085       .  S
C2007      C2008   1.407       .  A
C2008      H2016   1.084       .  S
C2017      C2018   1.396       .  A
C2017      C2022   1.402       .  A
C2017      H2033   1.084       .  S
C2018      C2019   1.402       .  A
C2018      H2034   1.084       .  S
C2019      C2029   1.399       .  A
C2019      C2020   1.410       .  A
C2020      C2026   1.412       .  A
C2020      C2021   1.414       .  A
C2021      C2023   1.412       .  A
C2021      C2022   1.410       .  A
C2022      C2030   1.399       .  A
C2023      C2032   1.412       .  A
C2023      C2024   1.406       .  A
C2024      C2025   1.404       .  A
C2024      H2035   1.084       .  S
C2025      C2026   1.406       .  A
C2025      H2036   1.083       .  S
C2026      C2027   1.411       .  A
C2027      C2028   1.411       .  A
C2027      H2037   1.084       .  S
C2028      C2029   1.406       .  A
C2029      H2038   1.084       .  S
C2030      C2031   1.407       .  A
C2030      H2039   1.084       .  S
C2031      C2032   1.412       .  A
C2032      H2040   1.084       .  S
C2041      C2042   1.394   1_545  A
C2041      C2046   1.402       .  A
C2041      H2057   1.084       .  S
C2042      C2043   1.402       .  A
C2042      H2058   1.084       .  S
C2043      C2053   1.395       .  A
C2043      C2044   1.410       .  A
C2044      C2050   1.412   1_556  A
C2044      C2045   1.410   1_566  A
C2045      C2047   1.412       .  A
C2045      C2046   1.410   1_554  A
C2046      C2054   1.395       .  A
C2047      C2056   1.408       .  A
C2047      C2048   1.405       .  A
C2048      C2049   1.402   1_545  A
C2048      H2059   1.084       .  S
C2049      C2050   1.405       .  A
C2049      H2060   1.083       .  S
C2050      C2051   1.408       .  A
C2051      C2052   1.407   1_554  A
C2051      H2061   1.084       .  S
C2052      C2053   1.405       .  A
C2053      H2062   1.085       .  S
C2054      C2055   1.406   1_556  A
C2054      H2063   1.085       .  S
C2055      C2056   1.408       .  A
C2056      H2064   1.084       .  S
C2065      C2066   1.400       .  A
C2065      C2070   1.404       .  A
C2065      H2081   1.084       .  S
C2066      C2067   1.405       .  A
C2066      H2082   1.084       .  S
C2067      C2077   1.404       .  A
C2067      C2068   1.411       .  A
C2068      C2074   1.413       .  A
C2068      C2069   1.413       .  A
C2069      C2071   1.411       .  A
C2069      C2070   1.413       .  A
C2070      C2078   1.406       .  A
C2071      C2080   1.402       .  A
C2071      C2072   1.404       .  A
C2072      C2073   1.399       .  A
C2072      H2083   1.084       .  S
C2073      C2074   1.403       .  A
C2073      H2084   1.083       .  S
C2074      C2075   1.405       .  A
C2075      C2076   1.406       .  A
C2075      H2085   1.084       .  S
C2076      C2077   1.409       .  A
C2077      H2086   1.084       .  S
C2078      C2079   1.407       .  A
C2078      H2087   1.084       .  S
C2079      C2080   1.408       .  A
C2080      H2088   1.085       .  S
C2089      C2090   1.398       .  A
C2089      C2094   1.404       .  A
C2089      H2105   1.084       .  S
C2090      C2091   1.403       .  A
C2090      H2106   1.084       .  S
C2091      C2101   1.403       .  A
C2091      C2092   1.414       .  A
C2092      C2098   1.410       .  A
C2092      C2093   1.410       .  A
C2093      C2095   1.414       .  A
C2093      C2094   1.410       .  A
C2094      C2102   1.398       .  A
C2095      C2104   1.404       .  A
C2095      C2096   1.402       .  A
C2096      C2097   1.398       .  A
C2096      H2107   1.083       .  S
C2097      C2098   1.404       .  A
C2097      H2108   1.084       .  S
C2098      C2099   1.399       .  A
C2099      C2100   1.407       .  A
C2099      H2109   1.085       .  S
C2100      C2101   1.405       .  A
C2101      H2110   1.084       .  S
C2102      C2103   1.407       .  A
C2102      H2111   1.085       .  S
C2103      C2104   1.403       .  A
C2104      H2112   1.084       .  S
C2113      C2114   1.402       .  A
C2113      C2118   1.405       .  A
C2113      H2129   1.084       .  S
C2114      C2115   1.405       .  A
C2114      H2130   1.083       .  S
C2115      C2125   1.408       .  A
C2115      C2116   1.412       .  A
C2116      C2122   1.410       .  A
C2116      C2117   1.411       .  A
C2117      C2119   1.410       .  A
C2117      C2118   1.412       .  A
C2118      C2126   1.407       .  A
C2119      C2128   1.397       .  A
C2119      C2120   1.402       .  A
C2120      C2121   1.395       .  A
C2120      H2131   1.084       .  S
C2121      C2122   1.402       .  A
C2121      H2132   1.083       .  S
C2122      C2123   1.397       .  A
C2123      C2124   1.406       .  A
C2123      H2133   1.084       .  S
C2124      C2125   1.410       .  A
C2125      H2134   1.084       .  S
C2126      C2127   1.409       .  A
C2126      H2135   1.084       .  S
C2127      C2128   1.406       .  A
C2128      H2136   1.084       .  S
C2137      C2138   1.405   1_545  A
C2137      C2142   1.406       .  A
C2137      H2153   1.083       .  S
C2138      C2139   1.406       .  A
C2138      H2154   1.084       .  S
C2139      C2149   1.412       .  A
C2139      C2140   1.413       .  A
C2140      C2146   1.409       .  A
C2140      C2141   1.412   1_565  A
C2141      C2143   1.410       .  A
C2141      C2142   1.412       .  A
C2142      C2150   1.411       .  A
C2143      C2152   1.395       .  A
C2143      C2144   1.401       .  A
C2144      C2145   1.393   1_545  A
C2144      H2155   1.084       .  S
C2145      C2146   1.401       .  A
C2145      H2156   1.084       .  S
C2146      C2147   1.393       .  A
C2147      C2148   1.406       .  A
C2147      H2157   1.084       .  S
C2148      C2149   1.410       .  A
C2149      H2158   1.084       .  S
C2150      C2151   1.410       .  A
C2150      H2159   1.084       .  S
C2151      C2152   1.405       .  A
C2152      H2160   1.085       .  S
C2161      C2162   1.398       .  A
C2161      C2166   1.403       .  A
C2161      H2177   1.084       .  S
C2162      C2163   1.403       .  A
C2162      H2178   1.084       .  S
C2163      C2173   1.403       .  A
C2163      C2164   1.413       .  A
C2164      C2170   1.411       .  A
C2164      C2165   1.412       .  A
C2165      C2167   1.413       .  A
C2165      C2166   1.411       .  A
C2166      C2174   1.400       .  A
C2167      C2176   1.406       .  A
C2167      C2168   1.404       .  A
C2168      C2169   1.401       .  A
C2168      H2179   1.084       .  S
C2169      C2170   1.405       .  A
C2169      H2180   1.084       .  S
C2170      C2171   1.404       .  A
C2171      C2172   1.410       .  A
C2171      H2181   1.084       .  S
C2172      C2173   1.406       .  A
C2173      H2182   1.084       .  S
C2174      C2175   1.406       .  A
C2174      H2183   1.085       .  S
C2175      C2176   1.406       .  A
C2176      H2184   1.084       .  S
C2185      C2186   1.398       .  A
C2185      C2190   1.403       .  A
C2185      H2201   1.083       .  S
C2186      C2187   1.403       .  A
C2186      H2202   1.084       .  S
C2187      C2197   1.401       .  A
C2187      C2188   1.412       .  A
C2188      C2194   1.412       .  A
C2188      C2189   1.413       .  A
C2189      C2191   1.412       .  A
C2189      C2190   1.411       .  A
C2190      C2198   1.402       .  A
C2191      C2200   1.407       .  A
C2191      C2192   1.405       .  A
C2192      C2193   1.401       .  A
C2192      H2203   1.084       .  S
C2193      C2194   1.404       .  A
C2193      H2204   1.084       .  S
C2194      C2195   1.407       .  A
C2195      C2196   1.406       .  A
C2195      H2205   1.084       .  S
C2196      C2197   1.403       .  A
C2197      H2206   1.085       .  S
C2198      C2199   1.406       .  A
C2198      H2207   1.084       .  S
C2199      C2200   1.407       .  A
C2200      H2208   1.084       .  S
C2209      C2210   1.398       .  A
C2209      C2214   1.403       .  A
C2209      H2225   1.084       .  S
C2210      C2211   1.403       .  A
C2210      H2226   1.084       .  S
C2211      C2221   1.400       .  A
C2211      C2212   1.410       .  A
C2212      C2218   1.413       .  A
C2212      C2213   1.412       .  A
C2213      C2215   1.411       .  A
C2213      C2214   1.413       .  A
C2214      C2222   1.402       .  A
C2215      C2224   1.404       .  A
C2215      C2216   1.404       .  A
C2216      C2217   1.400       .  A
C2216      H2227   1.083       .  S
C2217      C2218   1.404       .  A
C2217      H2228   1.084       .  S
C2218      C2219   1.406       .  A
C2219      C2220   1.406       .  A
C2219      H2229   1.085       .  S
C2220      C2221   1.405       .  A
C2221      H2230   1.084       .  S
C2222      C2223   1.404       .  A
C2222      H2231   1.085       .  S
C2223      C2224   1.405       .  A
C2224      H2232   1.084       .  S
C2233      C2234   1.398       .  A
C2233      C2238   1.403       .  A
C2233      H2249   1.084       .  S
C2234      C2235   1.403       .  A
C2234      H2250   1.084       .  S
C2235      C2245   1.403       .  A
C2235      C2236   1.413       .  A
C2236      C2242   1.411       .  A
C2236      C2237   1.411       .  A
C2237      C2239   1.414       .  A
C2237      C2238   1.410       .  A
C2238      C2246   1.398       .  A
C2239      C2248   1.405       .  A
C2239      C2240   1.403       .  A
C2240      C2241   1.399       .  A
C2240      H2251   1.084       .  S
C2241      C2242   1.404       .  A
C2241      H2252   1.084       .  S
C2242      C2243   1.402       .  A
C2243      C2244   1.408       .  A
C2243      H2253   1.085       .  S
C2244      C2245   1.405       .  A
C2245      H2254   1.085       .  S
C2246      C2247   1.406       .  A
C2246      H2255   1.085       .  S
C2247      C2248   1.404       .  A
C2248      H2256   1.084       .  S
