geometry optimzed in LAMMPS
_audit_creation_date              2020-12-01 
_audit_creation_method            'lammps2cif' 
_symmetry_space_group_name_H-M    'P1' 
_symmetry_Int_Tables_number       1 
_symmetry_cell_setting            triclinic 
loop_ 
_symmetry_equiv_pos_as_xyz 
  x,y,z 
_cell_length_a                    33.24335191 
_cell_length_b                    33.085794016372354 
_cell_length_c                    53.37171189169208 
_cell_angle_alpha                 90.87641644562959 
_cell_angle_beta                  89.79138508304992 
_cell_angle_gamma                 90.12737310779184 
loop_ 
_atom_site_label 
_atom_site_type_symbol 
_atom_site_fract_x 
_atom_site_fract_y 
_atom_site_fract_z 
_atom_site_charge 
O1          O  0.51603415  0.10128368  0.80508761    -0.80700
O2          O  0.54153050  0.04093037  0.90901874    -0.65400
O3          O  0.51414559  0.11094112  0.85643049    -1.12000
C4          C  0.64309535  0.16321535  0.86635395     1.06200
O5          O  0.55960038  0.09657179  0.93073789    -0.78600
O6          O  0.55441589  0.17075342  0.90674172    -0.66100
Ni7        Ni  0.47727762  0.09542627  0.83143213     1.34900
C8          C  0.54651183  0.19092261  0.88722784     0.85000
O9          O  0.47252679  0.05038371  0.88301058    -0.79100
O10         O  0.43718484  0.08900401  0.85690537    -0.89400
C11         C  0.54790327  0.05952620  0.92987244     0.84500
O12         O  0.48818546  0.03895290  0.83249295    -0.67600
O13         O  0.63218641  0.15970387  0.88932408    -0.86900
C14         C  0.52308568  0.02489462  0.83542344     0.85400
C15         C  0.43914744  0.06434986  0.87498211     1.06900
H16         H  0.59861643  0.07779896  0.87650796     0.38700
O17         O  0.57848115  0.09819011  0.87995011    -1.09500
O18         O  0.55576806  0.17840872  0.86539546    -0.66200
Ni19       Ni  0.56880399  0.12732197  0.85045857     1.26300
O20         O  0.54388371  0.03462475  0.85493757    -0.66400
O21         O  0.62371002  0.14679992  0.84803623    -0.78700
C22         C  0.53880577  0.13154283  0.80153070     0.84700
O23         O  0.55691116  0.15043690  0.81914095    -0.65900
Ni24       Ni  0.59421845  0.12811330  0.90876754     1.27400
Ni25       Ni  0.52640017  0.07361400  0.88135969     1.26100
H26         H  0.50055134  0.13280094  0.86510068     0.39300
O27         O  0.40755577  0.00187990  0.70994885    -0.80700
O28         O  0.45622795  0.98557046  0.60336367    -0.65400
O29         O  0.39099601  0.00645218  0.65985720    -1.12000
C30         C  0.33813892  0.87857610  0.64697269     1.06200
O31         O  0.40046475  0.96649837  0.58283210    -0.78600
O32         O  0.33014004  0.97233216  0.61173948    -0.66100
Ni33       Ni  0.40731785  0.04285548  0.68505461     1.34900
C34         C  0.31104087  0.97739964  0.63231192     0.85000
O35         O  0.44561342  0.05268850  0.63172603    -0.79100
O36         O  0.40800356  0.08479804  0.66069412    -0.89400
C37         C  0.43688364  0.97960572  0.58297234     0.84500
O38         O  0.46374083  0.03577916  0.68033706    -0.67600
O39         O  0.33915726  0.89249716  0.62465642    -0.86900
C40         C  0.47928514  0.00174068  0.67558819     0.85400
C41         C  0.43039945  0.08496566  0.64123095     1.06900
H42         H  0.42420112  0.92436294  0.63435229     0.38700
O43         O  0.40306287  0.94421703  0.63305232    -1.09500
O44         O  0.32411954  0.96433804  0.65299235    -0.66200
Ni45       Ni  0.37694171  0.95058527  0.66437263     1.26300
O46         O  0.46782171  0.98068996  0.65638474    -0.66400
O47         O  0.35848449  0.89463397  0.66507115    -0.78700
C48         C  0.38078261  0.97550195  0.71455536     0.84700
O49         O  0.35868110  0.95899353  0.69776201    -0.65900
Ni50       Ni  0.37021196  0.93108326  0.60525382     1.27400
Ni51       Ni  0.42552220  0.99752076  0.63267957     1.26100
H52         H  0.36815339  0.02006927  0.65283026     0.39300
O53         O  0.17982977  0.01998630  0.82626982    -0.80700
O54         O  0.04097461  0.99155485  0.90757143    -0.65400
O55         O  0.13213673  0.00715606  0.86537682    -1.12000
C56         C  0.15316372  0.86892786  0.87484661     1.06200
O57         O  0.08318992  0.96080353  0.93360176    -0.78600
O58         O  0.16090258  0.95487149  0.91948081    -0.66100
Ni59       Ni  0.12928995  0.04126003  0.83746814     1.34900
C60         C  0.18908064  0.95993381  0.90378029     0.85000
O61         O  0.07387600  0.05774394  0.88717928    -0.79100
O62         O  0.08101009  0.06969086  0.84686516    -0.89400
C63         C  0.05103052  0.98068950  0.92961896     0.84500
O64         O  0.09747048  0.99989708  0.82240043    -0.67600
O65         O  0.14458397  0.87938738  0.89746796    -0.86900
C66         C  0.06213596  0.99072293  0.83008291     0.85400
C67         C  0.06947178  0.08056957  0.86857715     1.06900
H68         H  0.07583246  0.92940523  0.87648963     0.38700
O69         O  0.09806041  0.94479116  0.88338199    -1.09500
O70         O  0.18501907  0.95138434  0.88078822    -0.66200
Ni71       Ni  0.13905050  0.94922635  0.85913499     1.26300
O72         O  0.05152648  0.99365766  0.85362774    -0.66400
O73         O  0.14610810  0.89165329  0.85623243    -0.78700
C74         C  0.19509816  0.98491676  0.82543384     0.84700
O75         O  0.17780762  0.95383320  0.83354941    -0.65900
Ni76       Ni  0.11376661  0.92184241  0.91423834     1.27400
Ni77       Ni  0.08499645  0.00075203  0.88479454     1.26100
H78         H  0.15295142  0.01778943  0.87621145     0.39300
O79         O  0.99003926  0.18629354  0.69831971    -0.80700
O80         O  0.96507275  0.05996963  0.60832005    -0.65400
O81         O  0.97949506  0.14315759  0.65667499    -1.12000
C82         C  0.84562276  0.17376798  0.64260708     1.06200
O83         O  0.93807261  0.10685243  0.58362442    -0.78600
O84         O  0.93931725  0.18289435  0.60428923    -0.66100
Ni85       Ni  0.01191192  0.13663680  0.68506583     1.34900
C86         C  0.94359572  0.20762514  0.62254350     0.85000
O87         O  0.02949635  0.08766859  0.63250953    -0.79100
O88         O  0.04103636  0.08950899  0.67329068    -0.89400
C89         C  0.95571999  0.07300787  0.58669263     0.84500
O90         O  0.96954357  0.10309468  0.69658583    -0.67600
O91         O  0.85995589  0.17074632  0.62035058    -0.86900
C92         C  0.96250135  0.06843325  0.68662822     0.85400
C93         C  0.05188454  0.08079639  0.65104091     1.06900
H94         H  0.90132235  0.09198153  0.63769608     0.38700
O95         O  0.91825159  0.11480618  0.63367707    -1.09500
O96         O  0.92810294  0.20084520  0.64377046    -0.66200
Ni97       Ni  0.92151344  0.15061331  0.66111528     1.26300
O98         O  0.96488400  0.06168024  0.66247763    -0.66400
O99         O  0.86420665  0.16001689  0.66162279    -0.78700
C100        C  0.95453109  0.20011605  0.69950796     0.84700
O101        O  0.92444155  0.18218985  0.69043087    -0.65900
Ni102      Ni  0.90093624  0.13873809  0.60342107     1.27400
Ni103      Ni  0.97347219  0.09989605  0.63389959     1.26100
H104        H  0.99181217  0.16473480  0.64747792     0.39300
O105        O  0.32864245  0.50098464  0.82481667    -0.80700
O106        O  0.45190645  0.54053230  0.91347031    -0.65400
O107        O  0.36914436  0.51834458  0.86676687    -1.12000
C108        C  0.33422801  0.65308346  0.87591097     1.06200
O109        O  0.40581709  0.57140939  0.93770045    -0.78600
O110        O  0.32929682  0.56709263  0.91873367    -0.66100
Ni111      Ni  0.37719589  0.48200098  0.83963075     1.34900
C112        C  0.30410057  0.56040454  0.90127605     0.85000
O113        O  0.42632543  0.47236991  0.89222316    -0.79100
O114        O  0.42467412  0.45606980  0.85205381    -0.89400
C115        C  0.43853973  0.55144857  0.93500327     0.84500
O116        O  0.40957750  0.52288204  0.82572406    -0.67600
O117        O  0.33941872  0.64279270  0.89867703    -0.86900
C118        C  0.44239463  0.53590117  0.83527469     0.85400
C119        C  0.43411962  0.44810668  0.87438592     1.06900
H120        H  0.41850458  0.60006206  0.88171907     0.38700
O121        O  0.39618594  0.58337994  0.88696039    -1.09500
O122        O  0.31097306  0.57051150  0.87888171    -0.66200
Ni123      Ni  0.36034442  0.57569319  0.86027189     1.26300
O124        O  0.44962846  0.53577046  0.85933535    -0.66400
O125        O  0.34951370  0.63302216  0.85751097    -0.78700
C126        C  0.31420598  0.53601621  0.82198619     0.84700
O127        O  0.32831601  0.56776464  0.83187854    -0.65900
Ni128      Ni  0.37310655  0.60540301  0.91678871     1.27400
Ni129      Ni  0.41227244  0.52823076  0.88875643     1.26100
H130        H  0.34751274  0.50705057  0.87653705     0.39300
O131        O  0.48036848  0.35490875  0.69569854    -0.80700
O132        O  0.51980009  0.48006815  0.60774836    -0.65400
O133        O  0.49698410  0.39526466  0.65325088    -1.12000
C134        C  0.63022030  0.35601973  0.64245241     1.06200
O135        O  0.55310299  0.43625823  0.58304135    -0.78600
O136        O  0.54558298  0.35943619  0.59805565    -0.66100
Ni137      Ni  0.46406019  0.40521548  0.68168215     1.34900
C138        C  0.53626748  0.33295241  0.61396855     0.85000
O139        O  0.45223094  0.45480333  0.62982734    -0.79100
O140        O  0.44078873  0.45501260  0.67053030    -0.89400
C141        C  0.53215689  0.46820075  0.58610643     0.84500
O142        O  0.50859345  0.43415348  0.69454782    -0.67600
O143        O  0.62070984  0.36397696  0.61990487    -0.86900
C144        C  0.51982210  0.46798232  0.68573676     0.85400
C145        C  0.43063167  0.46432337  0.64853596     1.06900
H146        H  0.57932496  0.44304582  0.64009807     0.38700
O147        O  0.56233351  0.42163286  0.63355597    -1.09500
O148        O  0.54544308  0.33638250  0.63693539    -0.66200
Ni149      Ni  0.55356136  0.38281864  0.65854147     1.26300
O150        O  0.51750468  0.47622561  0.66193164    -0.66400
O151        O  0.60992945  0.36940730  0.66114099    -0.78700
C152        C  0.51351722  0.33610296  0.69631644     0.84700
O153        O  0.54478907  0.34665616  0.68471812    -0.65900
Ni154      Ni  0.58507385  0.40103103  0.60308379     1.27400
Ni155      Ni  0.50769521  0.43936988  0.63208620     1.26100
H156        H  0.48378291  0.37445734  0.64340559     0.39300
O157        O  0.96320671  0.43075013  0.80250934    -0.80700
O158        O  0.95642702  0.47780154  0.90991704    -0.65400
O159        O  0.97370461  0.41322208  0.85220825    -1.12000
C160        C  0.84762508  0.35872608  0.86603158     1.06200
O161        O  0.93424660  0.42288711  0.92981781    -0.78600
O162        O  0.93994575  0.35297385  0.90197100    -0.66100
Ni163      Ni  0.00674636  0.43120745  0.82605700     1.34900
C164        C  0.94558630  0.33311413  0.88166951     0.85000
O165        O  0.02119722  0.46793131  0.88017574    -0.79100
O166        O  0.05112821  0.43301698  0.84892922    -0.89400
C167        C  0.95014970  0.45809778  0.92991610     0.84500
O168        O  0.99911277  0.48753436  0.83180619    -0.67600
O169        O  0.86127754  0.36092032  0.88835411    -0.86900
C170        C  0.96599049  0.50299055  0.83836074     0.85400
C171        C  0.05275367  0.45474867  0.86890217     1.06900
H172        H  0.89322216  0.44630160  0.87843801     0.38700
O173        O  0.91286058  0.42496205  0.87987411    -1.09500
O174        O  0.93335264  0.34538159  0.86052996    -0.66200
Ni175      Ni  0.91826427  0.39796052  0.84854451     1.26300
O176        O  0.94722493  0.49061647  0.85787820    -0.66400
O177        O  0.86281400  0.37902194  0.84797302    -0.78700
C178        C  0.93870202  0.40192105  0.79818022     0.84700
O179        O  0.92553525  0.37869104  0.81522888    -0.65900
Ni180      Ni  0.89901423  0.39293224  0.90762892     1.27400
Ni181      Ni  0.96618943  0.44744323  0.88000221     1.26100
H182        H  0.98829381  0.39034803  0.85849353     0.39300
O183        O  0.07809712  0.55358932  0.71632412    -0.80700
O184        O  0.02583640  0.55829302  0.61169821    -0.65400
O185        O  0.09365691  0.54143502  0.66689440    -1.12000
C186        C  0.14342083  0.67068497  0.65186465     1.06200
O187        O  0.08155704  0.57597245  0.59092982    -0.78600
O188        O  0.15290615  0.57614995  0.61636358    -0.66100
Ni189      Ni  0.07745228  0.50857266  0.69344956     1.34900
C190        C  0.17297994  0.57171090  0.63635622     0.85000
O191        O  0.03881918  0.49234258  0.64044096    -0.79100
O192        O  0.07524413  0.46333668  0.67071760    -0.89400
C193        C  0.04476627  0.56460735  0.59124174     0.84500
O194        O  0.02107049  0.51437466  0.68954974    -0.67600
O195        O  0.14021506  0.65634590  0.62951166    -0.86900
C196        C  0.00474055  0.54741485  0.68423662     0.85400
C197        C  0.05303452  0.46100087  0.65125706     1.06900
H198        H  0.05848249  0.62173452  0.64232447     0.38700
O199        O  0.07975749  0.60207591  0.64025241    -1.09500
O200        O  0.16017708  0.58361044  0.65759077    -0.66200
Ni201      Ni  0.10823373  0.59766110  0.67059531     1.26300
O202        O  0.01576554  0.56677895  0.66462569    -0.66400
O203        O  0.12669558  0.65370593  0.67080695    -0.78700
C204        C  0.10910337  0.57505390  0.72033131     0.84700
O205        O  0.12967104  0.59074912  0.70282832    -0.65900
Ni206      Ni  0.11035838  0.61480203  0.61153188     1.27400
Ni207      Ni  0.05781525  0.54833145  0.64052321     1.26100
H208        H  0.11624679  0.52707702  0.65968730     0.39300
O209        O  0.43998522  0.61243402  0.43429148    -0.80700
O210        O  0.42191019  0.66258960  0.32313718    -0.65400
O211        O  0.41435491  0.61117273  0.38510982    -1.12000
C212        C  0.55445256  0.58977515  0.37227045     1.06200
O213        O  0.46435539  0.61717652  0.30642794    -0.78600
O214        O  0.50316932  0.55920053  0.33222957    -0.66100
Ni215      Ni  0.40262077  0.64268772  0.41409150     1.34900
C216        C  0.47182304  0.53998710  0.33808135     0.85000
O217        O  0.36094756  0.65428795  0.35610652    -0.79100
O218        O  0.36209862  0.67335109  0.39672052    -0.89400
C219        C  0.43601045  0.64287338  0.30455873     0.84500
O220        O  0.44250420  0.68457675  0.40843002    -0.67600
O221        O  0.55173982  0.61349652  0.35364895    -0.86900
C222        C  0.44543404  0.70516388  0.38851772     0.85400
C223        C  0.34579122  0.67323416  0.37501977     1.06900
H224        H  0.48709096  0.65130528  0.36540951     0.38700
O225        O  0.47357631  0.62810792  0.35760236    -1.09500
O226        O  0.45200050  0.54870159  0.35834483    -0.66200
Ni227      Ni  0.46808379  0.59087798  0.38347029     1.26300
O228        O  0.42955829  0.69322270  0.36811485    -0.66400
O229        O  0.52373484  0.57338447  0.38255295    -0.78700
C230        C  0.45173987  0.57560094  0.43299931     0.84700
O231        O  0.45899018  0.55768446  0.41200937    -0.65900
Ni232      Ni  0.50760199  0.61608109  0.33053010     1.27400
Ni233      Ni  0.41732751  0.64000300  0.35506804     1.26100
H234        H  0.39512828  0.58930063  0.38347535     0.39300
O235        O  0.56906006  0.43210589  0.08314080    -0.80700
O236        O  0.66174369  0.45637722  0.18358383    -0.65400
O237        O  0.58569929  0.43072792  0.13405506    -1.12000
C238        C  0.54598601  0.56624126  0.14050621     1.06200
O239        O  0.65622586  0.52319210  0.18937921    -0.78600
O240        O  0.57626241  0.49736045  0.19214793    -0.66100
Ni241      Ni  0.60534149  0.40353908  0.10472568     1.34900
C242        C  0.54291321  0.48285791  0.18434033     0.85000
O243        O  0.63783259  0.38740101  0.16392098    -0.79100
O244        O  0.64324068  0.37112091  0.12327196    -0.89400
C245        C  0.67426581  0.48980531  0.19210415     0.84500
O246        O  0.64685365  0.44240451  0.09770056    -0.67600
O247        O  0.55561464  0.56027495  0.16309458    -0.86900
C248        C  0.67456125  0.45204379  0.11298345     0.85400
C249        C  0.65227599  0.36544004  0.14620626     1.06900
H250        H  0.63374914  0.50989678  0.13843687     0.38700
O251        O  0.61334493  0.49909984  0.14939010    -1.09500
O252        O  0.53357967  0.48076516  0.16056115    -0.66200
Ni253      Ni  0.56852724  0.48511651  0.12959562     1.26300
O254        O  0.67112280  0.44685461  0.13635491    -0.66400
O255        O  0.55389861  0.54030583  0.12359060    -0.78700
C256        C  0.53734033  0.45347005  0.08578827     0.84700
O257        O  0.52678355  0.46880041  0.10695447    -0.65900
Ni258      Ni  0.60542641  0.53798420  0.17530026     1.27400
Ni259      Ni  0.62504674  0.44341475  0.15821846     1.26100
H260        H  0.56447884  0.41486652  0.14153567     0.39300
O261        O  0.57580224  0.08703898  0.43365945    -0.80700
O262        O  0.67142107  0.08550669  0.33367459    -0.65400
O263        O  0.59248537  0.09867251  0.38349671    -1.12000
C264        C  0.56391758  0.96079515  0.37075050     1.06200
O265        O  0.67594477  0.01860209  0.32859482    -0.78600
O266        O  0.59381883  0.03649608  0.32301562    -0.66100
Ni267      Ni  0.60926711  0.12293066  0.41418439     1.34900
C268        C  0.55841615  0.04705975  0.32979393     0.85000
O269        O  0.64112811  0.14976695  0.35599899    -0.79100
O270        O  0.64317892  0.16254657  0.39732606    -0.89400
C271        C  0.68979720  0.05419171  0.32653299     0.84500
O272        O  0.65427461  0.08725761  0.41938311    -0.67600
O273        O  0.57659490  0.96878512  0.34893349    -0.86900
C274        C  0.68308004  0.08229072  0.40398640     0.85400
C275        C  0.65116973  0.17226795  0.37465641     1.06900
H276        H  0.64666414  0.02526451  0.37785564     0.38700
O277        O  0.62638037  0.03478489  0.36650586    -1.09500
O278        O  0.54660165  0.04709940  0.35324767    -0.66200
Ni279      Ni  0.57888474  0.04276165  0.38522643     1.26300
O280        O  0.67978234  0.09157919  0.38118639    -0.66400
O281        O  0.56733236  0.98620224  0.38855476    -0.78700
C282        C  0.54475097  0.06496681  0.42965384     0.84700
O283        O  0.53466629  0.05336404  0.40753645    -0.65900
Ni284      Ni  0.62512742  0.99736210  0.33957076     1.27400
Ni285      Ni  0.63349946  0.09224259  0.35945316     1.26100
H286        H  0.57045733  0.11388353  0.37658026     0.39300
O287        O  0.43822941  0.91688397  0.07932743    -0.80700
O288        O  0.40952434  0.85406604  0.18707105    -0.65400
O289        O  0.41285370  0.91743742  0.12907518    -1.12000
C290        C  0.54814019  0.94385522  0.14817110     1.06200
O291        O  0.47448252  0.84848912  0.19704663    -0.78600
O292        O  0.46338846  0.93195949  0.19296625    -0.66100
Ni293      Ni  0.39580988  0.89155922  0.09873984     1.34900
C294        C  0.46061175  0.96606527  0.18234529     0.85000
O295        O  0.35282147  0.87974422  0.15644274    -0.79100
O296        O  0.34980482  0.86603490  0.11515505    -0.89400
C297        C  0.43813068  0.83693119  0.19812216     0.84500
O298        O  0.42865051  0.84307411  0.10154583    -0.67600
O299        O  0.53654065  0.93599105  0.17027212    -0.86900
C300        C  0.42742357  0.82006534  0.12039469     0.85400
C301        C  0.33410028  0.86566236  0.13719135     1.06900
H302        H  0.48004123  0.86239887  0.14541922     0.38700
O303        O  0.46988630  0.88628643  0.15385556    -1.09500
O304        O  0.46355582  0.96990603  0.15799893    -0.66200
Ni305      Ni  0.46923893  0.92788714  0.13011993     1.26300
O306        O  0.41260548  0.83228076  0.14098096    -0.66400
O307        O  0.52643205  0.93558488  0.12938110    -0.78700
C308        C  0.45794978  0.95004937  0.08167979     0.84700
O309        O  0.46560519  0.96563614  0.10326827    -0.65900
Ni310      Ni  0.50204240  0.89329296  0.18256081     1.27400
Ni311      Ni  0.41099771  0.88417863  0.15727603     1.26100
H312        H  0.39774072  0.94196229  0.13212844     0.39300
O313        O  0.04851050  0.59187682  0.08119392    -0.80700
O314        O  0.02549800  0.67731780  0.18385576    -0.65400
O315        O  0.05968520  0.60746501  0.13154627    -1.12000
C316        C  0.92156141  0.56561726  0.13608001     1.06200
O317        O  0.99474091  0.62594447  0.20200121    -0.78600
O318        O  0.97061826  0.55417117  0.18265846    -0.66100
Ni319      Ni  0.07807037  0.63041308  0.10114631     1.34900
C320        C  0.00488221  0.53865643  0.17910499     0.85000
O321        O  0.09725720  0.66974487  0.15964261    -0.79100
O322        O  0.11068344  0.67041081  0.11836782    -0.89400
C323        C  0.00647271  0.66235240  0.20210541     0.84500
O324        O  0.03572738  0.66929387  0.09680692    -0.67600
O325        O  0.91737510  0.59220684  0.15344831    -0.86900
C326        C  0.02222166  0.69360382  0.11340145     0.85400
C327        C  0.11774405  0.68229808  0.14082094     1.06900
H328        H  0.97688701  0.63892836  0.14098725     0.38700
O329        O  0.99201600  0.62098067  0.15147266    -1.09500
O330        O  0.02561829  0.54604641  0.15919193    -0.66200
Ni331      Ni  0.00891593  0.57896996  0.13017117     1.26300
O332        O  0.02808906  0.68876847  0.13656147    -0.66400
O333        O  0.95603744  0.55282220  0.12848931    -0.78700
C334        C  0.03752998  0.55524607  0.08407022     0.84700
O335        O  0.02834240  0.54104142  0.10552815    -0.65900
Ni336      Ni  0.95619582  0.60912170  0.17763387     1.27400
Ni337      Ni  0.04421297  0.64471605  0.15704313     1.26100
H338        H  0.08034997  0.58988972  0.13786997     0.39300
O339        O  0.90452268  0.47454926  0.43647068    -0.80700
O340        O  0.84505831  0.47777914  0.32608256    -0.65400
O341        O  0.90011653  0.45508297  0.38598823    -1.12000
C342        C  0.93506831  0.59471674  0.38227958     1.06200
O343        O  0.89432629  0.51834524  0.31226977    -0.78600
O344        O  0.95788819  0.54543656  0.33851407    -0.66100
Ni345      Ni  0.87216022  0.43985824  0.41514847     1.34900
C346        C  0.97214398  0.51038306  0.34116371     0.85000
O347        O  0.84793177  0.41011932  0.35481582    -0.79100
O348        O  0.83891273  0.40266348  0.39630470    -0.89400
C349        C  0.86416740  0.49541824  0.30861077     0.84500
O350        O  0.83095453  0.48057580  0.41410574    -0.67600
O351        O  0.90973123  0.59724198  0.36452203    -0.86900
C352        C  0.80969032  0.49011707  0.39537288     0.85400
C353        C  0.83276943  0.39131913  0.37359323     1.06900
H354        H  0.86636557  0.53398061  0.37244517     0.38700
O355        O  0.88721310  0.51985581  0.36327947    -1.09500
O356        O  0.96293498  0.48937072  0.36051234    -0.66200
Ni357      Ni  0.92547864  0.50711075  0.38751185     1.26300
O358        O  0.81923288  0.48058932  0.37300882    -0.66400
O359        O  0.94920717  0.56088516  0.38947021    -0.78700
C360        C  0.94108575  0.48659893  0.43547917     0.84700
O361        O  0.95929871  0.49196831  0.41463521    -0.65900
Ni362      Ni  0.90169576  0.55710048  0.33870406     1.27400
Ni363      Ni  0.86903591  0.46528153  0.35716243     1.26100
H364        H  0.91988162  0.43456058  0.38200816     0.39300
O365        O  0.06492980  0.95098753  0.43644609    -0.80700
O366        O  0.03937049  0.84736949  0.33995835    -0.65400
O367        O  0.07051583  0.92837750  0.38644082    -1.12000
C368        C  0.92891324  0.95859126  0.38432233     1.06200
O369        O  0.00117433  0.89088681  0.32015024    -0.78600
O370        O  0.97557582  0.96378873  0.33498094    -0.66100
Ni371      Ni  0.09416158  0.91157291  0.41688367     1.34900
C372        C  0.00778236  0.98382860  0.33778566     0.85000
O373        O  0.11100937  0.86782780  0.35925228    -0.79100
O374        O  0.12764921  0.87195964  0.39991771    -0.89400
C375        C  0.01652587  0.85613506  0.32203810     0.84500
O376        O  0.05427739  0.87128591  0.42495877    -0.67600
O377        O  0.92545843  0.92896655  0.36893138    -0.86900
C378        C  0.04272512  0.84294051  0.41037091     0.85400
C379        C  0.13420752  0.85943322  0.37747991     1.06900
H380        H  0.99034742  0.88713975  0.38219253     0.38700
O381        O  0.00267001  0.90505855  0.37028311    -1.09500
O382        O  0.02913948  0.98167639  0.35781021    -0.66200
Ni383      Ni  0.01745674  0.95145312  0.38868128     1.26300
O384        O  0.04811252  0.84390383  0.38695362    -0.66400
O385        O  0.96302136  0.97343526  0.39086878    -0.78700
C386        C  0.04756966  0.98454667  0.43219665     0.84700
O387        O  0.03499360  0.99420156  0.41048295    -0.65900
Ni388      Ni  0.96394359  0.90984661  0.34483778     1.27400
Ni389      Ni  0.05647460  0.88638951  0.36355876     1.26100
H390        H  0.08868878  0.94695236  0.37835256     0.39300
O391        O  0.89576037  0.06638679  0.08350104    -0.80700
O392        O  0.84919593  0.07410602  0.19669886    -0.65400
O393        O  0.89813115  0.08890652  0.13389539    -1.12000
C394        C  0.92333046  0.94785170  0.13871287     1.06200
O395        O  0.89349375  0.02809135  0.20968663    -0.78600
O396        O  0.95228818  0.99608603  0.18067770    -0.66100
Ni397      Ni  0.86750256  0.10424133  0.10593186     1.34900
C398        C  0.96881305  0.02996146  0.17732805     0.85000
O399        O  0.85619849  0.13857559  0.16669501    -0.79100
O400        O  0.83983007  0.14559094  0.12592595    -0.89400
C401        C  0.86944680  0.05732441  0.21378596     0.84500
O402        O  0.82364595  0.06606115  0.11055070    -0.67600
O403        O  0.89882780  0.94794079  0.15715233    -0.86900
C404        C  0.80369423  0.06109799  0.13072699     0.85400
C405        C  0.83978559  0.15811466  0.14885080     1.06900
H406        H  0.85922287  0.01392565  0.15017719     0.38700
O407        O  0.88215938  0.02622489  0.15830351    -1.09500
O408        O  0.95996579  0.05122874  0.15803285    -0.66200
Ni409      Ni  0.91927058  0.03551760  0.13240795     1.26300
O410        O  0.81718805  0.07227724  0.15189804    -0.66400
O411        O  0.93904964  0.98026371  0.13025058    -0.78700
C412        C  0.93244607  0.05416436  0.08355175     0.84700
O413        O  0.95151430  0.04838509  0.10401266    -0.65900
Ni414      Ni  0.89561210  0.98873770  0.18291743     1.27400
Ni415      Ni  0.87039916  0.08228976  0.16434082     1.26100
H416        H  0.91972618  0.10819517  0.13629573     0.39300
C417        C  0.02423099  0.02696121  0.23202020     0.30000
C418        C  0.04484403  0.00414399  0.25009268    -0.36400
C419        C  0.03512495  0.01196968  0.27550321     0.16000
C420        C  0.00641660  0.03982289  0.28264235     0.21800
C421        C  0.98666495  0.06342475  0.26460378    -0.34500
C422        C  0.99706637  0.05625469  0.23922341     0.15900
O423        O  0.02259548  0.01874624  0.20761413    -0.26500
C424        C  0.99482643  0.04379363  0.19850263     0.05700
C425        C  0.97867481  0.06834925  0.21760088    -0.31400
O426        O  0.99640016  0.03691839  0.30667002    -0.23200
C427        C  0.02001136  0.00784475  0.31560675    -0.03200
C428        C  0.04455952  0.99122857  0.29677916    -0.17600
H429        H  0.06470412  0.97964875  0.24463190     0.20400
H430        H  0.96250444  0.08376995  0.26984701     0.18700
H431        H  0.95207188  0.08701179  0.21649413     0.18700
H432        H  0.06242146  0.96398078  0.29780576     0.14500
C433        C  0.01463072  0.74391240  0.41993495     0.30000
C434        C  0.02197644  0.70212148  0.41818067    -0.36400
C435        C  0.98960489  0.67789371  0.41013854     0.16000
C436        C  0.95263081  0.69377308  0.40401678     0.21800
C437        C  0.94495615  0.73534844  0.40644807    -0.34500
C438        C  0.97720301  0.75951138  0.41467898     0.15900
O439        O  0.04223830  0.77242814  0.42259871    -0.26500
C440        C  0.02218904  0.80685679  0.41965454     0.05700
C441        C  0.98156797  0.80044728  0.41475202    -0.31400
O442        O  0.92827132  0.66650933  0.39397874    -0.23200
C443        C  0.94960325  0.63251209  0.39406778    -0.03200
C444        C  0.98789642  0.63769822  0.40408554    -0.17600
H445        H  0.05161359  0.68967537  0.42120975     0.20400
H446        H  0.91660103  0.74828455  0.40076525     0.18700
H447        H  0.95988602  0.82236532  0.40838582     0.18700
H448        H  0.01182159  0.61565833  0.40514794     0.14500
C449        C  0.93599987  0.84556052  0.12339917     0.30000
C450        C  0.92907197  0.80419696  0.12640478    -0.36400
C451        C  0.95727345  0.77813227  0.11532334     0.16000
C452        C  0.99030298  0.79164001  0.10211339     0.21800
C453        C  0.99684883  0.83330320  0.09866036    -0.34500
C454        C  0.96847618  0.85955865  0.10985072     0.15900
O455        O  0.91555247  0.87480108  0.13447525    -0.26500
C456        C  0.93470270  0.90829567  0.12789098     0.05700
C457        C  0.96785449  0.90079923  0.11240778    -0.31400
O458        O  0.01605606  0.76217496  0.09693987    -0.23200
C459        C  0.99892433  0.72945865  0.10669226    -0.03200
C460        C  0.96232772  0.73780189  0.11827722    -0.17600
H461        H  0.90467471  0.79315498  0.13793237     0.20400
H462        H  0.02347539  0.84450711  0.08930340     0.18700
H463        H  0.98957437  0.92230046  0.10538357     0.18700
H464        H  0.94459748  0.71795617  0.12992119     0.14500
C465        C  0.98245633  0.74147131  0.24141026     0.30000
C466        C  0.97619482  0.78224715  0.24690387    -0.36400
C467        C  0.98586774  0.79426801  0.27120278     0.16000
C468        C  0.00010876  0.76778589  0.28889495     0.21800
C469        C  0.00415129  0.72657802  0.28381919    -0.34500
C470        C  0.99496334  0.71459350  0.25941268     0.15900
O471        O  0.98340371  0.72566384  0.21886793    -0.26500
C472        C  0.99592454  0.68836162  0.22268456     0.05700
C473        C  0.00284968  0.67916462  0.24744339    -0.31400
O474        O  0.01281562  0.78639066  0.30912469    -0.23200
C475        C  0.00632569  0.82493077  0.30425267    -0.03200
C476        C  0.98908514  0.83187784  0.28118819    -0.17600
H477        H  0.96800143  0.80364437  0.23265960     0.20400
H478        H  0.01686890  0.70604988  0.29724758     0.18700
H479        H  0.01601716  0.65204886  0.25498487     0.18700
H480        H  0.98215763  0.86046151  0.27260232     0.14500
C481        C  0.02556204  0.50688497  0.28494473     0.30000
C482        C  0.04604178  0.52707045  0.26555489    -0.36400
C483        C  0.03665580  0.51531755  0.24071889     0.16000
C484        C  0.00831590  0.48614843  0.23525079     0.21800
C485        C  0.98879546  0.46491777  0.25469144    -0.34500
C486        C  0.99871289  0.47624285  0.27959752     0.15900
O487        O  0.02382318  0.51885908  0.30876172    -0.26500
C488        C  0.99635160  0.49498495  0.31944680     0.05700
C489        C  0.98007744  0.46758847  0.30196188    -0.31400
O490        O  0.99753326  0.48642798  0.21128297    -0.23200
C491        C  0.02017484  0.51520228  0.20075843    -0.03200
C492        C  0.04521300  0.53382831  0.21847702    -0.17600
H493        H  0.06533156  0.55275790  0.26951608     0.20400
H494        H  0.96485837  0.44356967  0.25071099     0.18700
H495        H  0.95351666  0.44903489  0.30436941     0.18700
H496        H  0.06188494  0.56169798  0.21624543     0.14500
C497        C  0.24769949  0.80791558  0.15397076     0.30000
C498        C  0.22304526  0.78319328  0.16924675    -0.36400
C499        C  0.19473114  0.75795832  0.15671287     0.16000
C500        C  0.19120414  0.75750757  0.13099162     0.21800
C501        C  0.21494121  0.78256609  0.11592231    -0.34500
C502        C  0.24295068  0.80743704  0.12833495     0.15900
O503        O  0.27894704  0.83062727  0.16114181    -0.26500
C504        C  0.29413956  0.84492861  0.13971273     0.05700
C505        C  0.27237892  0.83156095  0.11888420    -0.31400
O506        O  0.16459446  0.73092199  0.12276271    -0.23200
C507        C  0.14998718  0.71363487  0.14328368    -0.03200
C508        C  0.16758201  0.72943076  0.16515925    -0.17600
H509        H  0.22664912  0.78259943  0.18937629     0.20400
H510        H  0.21263805  0.78171577  0.09569496     0.18700
H511        H  0.27917318  0.83644182  0.09930634     0.18700
H512        H  0.16161576  0.72092742  0.18431319     0.14500
C513        C  0.71060936  0.01868996  0.14683439     0.30000
C514        C  0.68082282  0.00647557  0.16375197    -0.36400
C515        C  0.64551268  0.99078665  0.15323396     0.16000
C516        C  0.63958003  0.98722605  0.12773401     0.21800
C517        C  0.66962603  0.99958162  0.11066628    -0.34500
C518        C  0.70532635  0.01533830  0.12126316     0.15900
O519        O  0.74557288  0.03454946  0.15294255    -0.26500
C520        C  0.76355445  0.04168572  0.13112795     0.05700
C521        C  0.73998478  0.03017777  0.11061385    -0.31400
O522        O  0.60420462  0.97080146  0.12225394    -0.23200
C523        C  0.58759307  0.96379697  0.14461824    -0.03200
C524        C  0.61199452  0.97585160  0.16445690    -0.17600
H525        H  0.68496681  0.00897109  0.18382395     0.20400
H526        H  0.66553964  0.99694652  0.09060226     0.18700
H527        H  0.74703786  0.03291473  0.09090469     0.18700
H528        H  0.60610381  0.97334407  0.18433675     0.14500
C529        C  0.76443817  0.31122216  0.35755482     0.30000
C530        C  0.73982276  0.28478339  0.34295097    -0.36400
C531        C  0.71542638  0.25701273  0.35636159     0.16000
C532        C  0.71515885  0.25618648  0.38219208     0.21800
C533        C  0.73948354  0.28202574  0.39650412    -0.34500
C534        C  0.76389241  0.30878831  0.38328943     0.15900
O535        O  0.78959043  0.34004909  0.34964560    -0.26500
C536        C  0.80531888  0.35552420  0.37085569     0.05700
C537        C  0.79019954  0.33668321  0.39206208    -0.31400
O538        O  0.69161139  0.22792110  0.39130622    -0.23200
C539        C  0.67605772  0.20935976  0.37131781    -0.03200
C540        C  0.68983622  0.22615768  0.34884872    -0.17600
H541        H  0.73992963  0.28551094  0.32269005     0.20400
H542        H  0.73976568  0.28095120  0.41676453     0.18700
H543        H  0.79686405  0.34338813  0.41153426     0.18700
H544        H  0.68311782  0.21626967  0.32990004     0.14500
C545        C  0.84864338  0.02061004  0.40435441     0.30000
C546        C  0.82832068  0.05729720  0.40894056    -0.36400
C547        C  0.78617977  0.05481758  0.41133999     0.16000
C548        C  0.76552401  0.01867299  0.40955402     0.21800
C549        C  0.78578684  0.98211395  0.40497394    -0.34500
C550        C  0.82772139  0.98465495  0.40230961     0.15900
O551        O  0.88750665  0.01617852  0.39949546    -0.26500
C552        C  0.89136810  0.97689533  0.39408836     0.05700
C553        C  0.85508885  0.95594548  0.39551504    -0.31400
O554        O  0.72613207  0.02363337  0.40944038    -0.23200
C555        C  0.72113239  0.06344578  0.41146868    -0.03200
C556        C  0.75753976  0.08438194  0.41250346    -0.17600
H557        H  0.84404156  0.08597596  0.40939742     0.20400
H558        H  0.76972568  0.95388381  0.40234472     0.18700
H559        H  0.84945760  0.92438788  0.39112807     0.18700
H560        H  0.76218480  0.11672778  0.41166466     0.14500
C561        C  0.77630922  0.09015425  0.29853690     0.30000
C562        C  0.79637153  0.11479062  0.28162498    -0.36400
C563        C  0.82973002  0.09746805  0.26981531     0.16000
C564        C  0.84433367  0.05961687  0.27594375     0.21800
C565        C  0.82634150  0.03671917  0.29470301    -0.34500
C566        C  0.79082887  0.05248021  0.30470475     0.15900
O567        O  0.73902847  0.09552230  0.30576534    -0.26500
C568        C  0.72932395  0.06064635  0.31605018     0.05700
C569        C  0.76033316  0.03281223  0.31634238    -0.31400
O570        O  0.86545912  0.04327334  0.25768409    -0.23200
C571        C  0.86326191  0.07004128  0.23958254    -0.03200
C572        C  0.84296625  0.10504721  0.24631752    -0.17600
H573        H  0.78268182  0.14216832  0.27481206     0.20400
H574        H  0.83490352  0.00560462  0.29766381     0.18700
H575        H  0.75963474  0.00192886  0.32274892     0.18700
H576        H  0.83257273  0.12858136  0.23403845     0.14500
C577        C  0.51985657  0.05627729  0.26903494     0.30000
C578        C  0.52565311  0.05569117  0.24277094    -0.36400
C579        C  0.49509323  0.03762834  0.22807782     0.16000
C580        C  0.46120609  0.02092376  0.23861379     0.21800
C581        C  0.45496540  0.02240463  0.26490491    -0.34500
C582        C  0.48551513  0.04059695  0.27964282     0.15900
O583        O  0.54765550  0.06499974  0.28597363    -0.26500
C584        C  0.53135174  0.05539423  0.30808132     0.05700
C585        C  0.49225047  0.04035828  0.30518793    -0.31400
O586        O  0.44079751  0.99830876  0.22226244    -0.23200
C587        C  0.46099803  0.00090637  0.20054924    -0.03200
C588        C  0.49503784  0.02552879  0.20327940    -0.17600
H589        H  0.55370000  0.06558901  0.23449738     0.20400
H590        H  0.42963142  0.00725309  0.27344885     0.18700
H591        H  0.47386012  0.02598762  0.31926994     0.18700
H592        H  0.51985134  0.02816284  0.19020124     0.14500
C593        C  0.72134236  0.29000189  0.16488939     0.30000
C594        C  0.73653451  0.25655982  0.17803623    -0.36400
C595        C  0.77087444  0.23738225  0.16759525     0.16000
C596        C  0.78883531  0.25040541  0.14579104     0.21800
C597        C  0.77433393  0.28404358  0.13308635    -0.34500
C598        C  0.74011049  0.30268452  0.14328601     0.15900
O599        O  0.68782065  0.31070697  0.16981362    -0.26500
C600        C  0.68525074  0.33636033  0.15077505     0.05700
C601        C  0.71710894  0.33261008  0.13398059    -0.31400
O602        O  0.81697422  0.22558881  0.13740852    -0.23200
C603        C  0.81805496  0.19630385  0.15418133    -0.03200
C604        C  0.79019528  0.20217124  0.17356293    -0.17600
H605        H  0.72155905  0.24509106  0.19450821     0.20400
H606        H  0.78748612  0.29364690  0.11556760     0.18700
H607        H  0.72199253  0.34904913  0.11684811     0.18700
H608        H  0.78262621  0.18154043  0.18840930     0.14500
C609        C  0.75790344  0.51375589  0.10720003     0.30000
C610        C  0.77933229  0.54896354  0.11335600    -0.36400
C611        C  0.82103735  0.54476749  0.11561942     0.16000
C612        C  0.84082352  0.50858059  0.11168121     0.21800
C613        C  0.81932473  0.47325183  0.10520382    -0.34500
C614        C  0.77728838  0.47734025  0.10325548     0.15900
O615        O  0.71849616  0.50986603  0.10823998    -0.26500
C616        C  0.71210236  0.47059570  0.10447870     0.05700
C617        C  0.74764767  0.44880128  0.10139813    -0.31400
O618        O  0.87960468  0.51109370  0.11717066    -0.23200
C619        C  0.88433175  0.54932699  0.12487685    -0.03200
C620        C  0.84889333  0.57148377  0.12425814    -0.17600
H621        H  0.76421555  0.57712966  0.11780125     0.20400
H622        H  0.83400310  0.44418649  0.10336931     0.18700
H623        H  0.75126780  0.41629825  0.10097558     0.18700
H624        H  0.84400515  0.60237029  0.13051976     0.14500
C625        C  0.81522026  0.46784445  0.25454066     0.30000
C626        C  0.78689643  0.44454930  0.24174538    -0.36400
C627        C  0.76224133  0.46565953  0.22556205     0.16000
C628        C  0.76556297  0.50678214  0.22175533     0.21800
C629        C  0.79600215  0.52958489  0.23312046    -0.34500
C630        C  0.82044742  0.50854020  0.24967366     0.15900
O631        O  0.83289216  0.45689796  0.27523500    -0.26500
C632        C  0.85025807  0.49061839  0.28326693     0.05700
C633        C  0.84470600  0.52344457  0.26787220    -0.31400
O634        O  0.73479459  0.52132622  0.20941916    -0.23200
C635        C  0.71207250  0.48890909  0.20533261    -0.03200
C636        C  0.72790251  0.45347100  0.21454307    -0.17600
H637        H  0.78121024  0.41329873  0.24636787     0.20400
H638        H  0.79765784  0.56210109  0.23135647     0.18700
H639        H  0.85186077  0.55484382  0.27182621     0.18700
H640        H  0.71463644  0.42354232  0.21449420     0.14500
C641        C  0.47362585  0.72386508  0.11182336     0.30000
C642        C  0.49565518  0.69189941  0.10044515    -0.36400
C643        C  0.50398170  0.65834665  0.11577323     0.16000
C644        C  0.49194093  0.65692793  0.14053386     0.21800
C645        C  0.46976295  0.68818479  0.15161702    -0.34500
C646        C  0.46115964  0.72097828  0.13639649     0.15900
O647        O  0.46316778  0.75901315  0.10180212    -0.26500
C648        C  0.44350116  0.77815025  0.12040955     0.05700
C649        C  0.44144379  0.75544392  0.14207717    -0.31400
O650        O  0.50440737  0.62437603  0.15203123    -0.23200
C651        C  0.52433596  0.60373853  0.13448357    -0.03200
C652        C  0.52498835  0.62323773  0.11141243    -0.17600
H653        H  0.50598137  0.69324946  0.08122485     0.20400
H654        H  0.46024351  0.68725359  0.17100177     0.18700
H655        H  0.42795198  0.76365480  0.15990212     0.18700
H656        H  0.54011511  0.61373370  0.09433258     0.14500
C657        C  0.20700937  0.78541666  0.36142220     0.30000
C658        C  0.22498411  0.75255138  0.34828093    -0.36400
C659        C  0.25809646  0.73401405  0.36010133     0.16000
C660        C  0.27165480  0.74690472  0.38328298     0.21800
C661        C  0.25410203  0.77943220  0.39615938    -0.34500
C662        C  0.22186561  0.79800296  0.38433196     0.15900
O663        O  0.17482148  0.80651798  0.35481762    -0.26500
C664        C  0.16962594  0.83283156  0.37384328     0.05700
C665        C  0.19833467  0.82881681  0.39247525    -0.31400
O666        O  0.30267605  0.72631500  0.39114034    -0.23200
C667        C  0.31018977  0.69968627  0.37285826    -0.03200
C668        C  0.28332029  0.70286681  0.35285974    -0.17600
H669        H  0.21392654  0.74213962  0.33026026     0.20400
H670        H  0.26493228  0.78960938  0.41429616     0.18700
H671        H  0.20039675  0.84508480  0.41018623     0.18700
H672        H  0.28285510  0.68544490  0.33553976     0.14500
C673        C  0.65761147  0.57673553  0.38231841     0.30000
C674        C  0.69839631  0.58048854  0.37620202    -0.36400
C675        C  0.72458229  0.55403160  0.38818514     0.16000
C676        C  0.71186435  0.52598282  0.40540641     0.21800
C677        C  0.67089493  0.52268391  0.41189786    -0.34500
C678        C  0.64446431  0.54892039  0.39956585     0.15900
O679        O  0.62784804  0.59549291  0.37119852    -0.26500
C680        C  0.59494958  0.57970548  0.38136650     0.05700
C681        C  0.60339436  0.55071306  0.39930464    -0.31400
O682        O  0.74109821  0.50120249  0.41197870    -0.23200
C683        C  0.77270531  0.51378573  0.39875486    -0.03200
C684        C  0.76405035  0.54644992  0.38369283    -0.17600
H685        H  0.70871969  0.60099797  0.36192683     0.20400
H686        H  0.66011373  0.49972902  0.42451441     0.18700
H687        H  0.58236310  0.53213339  0.40956023     0.18700
H688        H  0.78332367  0.56041184  0.36988623     0.14500
C689        C  0.49092565  0.80138754  0.39651893     0.30000
C690        C  0.50050679  0.83865005  0.40833054    -0.36400
C691        C  0.51801157  0.86837602  0.39297145     0.16000
C692        C  0.52578236  0.86164593  0.36783683     0.21800
C693        C  0.51646441  0.82462005  0.35614322    -0.34500
C694        C  0.49878905  0.79527646  0.37134767     0.15900
O695        O  0.47244366  0.76993334  0.40671475    -0.26500
C696        C  0.46833343  0.74365704  0.38764317     0.05700
C697        C  0.48438575  0.75799080  0.36533864    -0.31400
O698        O  0.54208137  0.89319726  0.35686277    -0.23200
C699        C  0.54492052  0.92095740  0.37506232    -0.03200
C700        C  0.53034434  0.90722231  0.39801637    -0.17600
H701        H  0.49413031  0.84433101  0.42796502     0.20400
H702        H  0.52202887  0.81926659  0.33637577     0.18700
H703        H  0.48418357  0.74342896  0.34702821     0.18700
H704        H  0.52940265  0.92333710  0.41581244     0.14500
C705        C  0.39566463  0.69479512  0.25617933     0.30000
C706        C  0.37798526  0.73129573  0.24930917    -0.36400
C707        C  0.39912414  0.75339324  0.23151030     0.16000
C708        C  0.43448738  0.73974919  0.22070728     0.21800
C709        C  0.45011763  0.70174091  0.22585976    -0.34500
C710        C  0.42972374  0.68003040  0.24414664     0.15900
O711        O  0.39015679  0.67818187  0.27804681    -0.26500
C712        C  0.42083159  0.65287978  0.28000976     0.05700
C713        C  0.44516967  0.65104953  0.25894100    -0.31400
O714        O  0.45324973  0.76792985  0.20824388    -0.23200
C715        C  0.42935918  0.79971308  0.21083205    -0.03200
C716        C  0.39484295  0.79251018  0.22470992    -0.17600
H717        H  0.35307650  0.74428997  0.25975701     0.20400
H718        H  0.47915443  0.69224700  0.21867810     0.18700
H719        H  0.47483105  0.63773566  0.25741620     0.18700
H720        H  0.37136795  0.81360054  0.23005218     0.14500
C721        C  0.45440886  0.50125569  0.27913634     0.30000
C722        C  0.44835804  0.50930100  0.25343198    -0.36400
C723        C  0.47365404  0.48889737  0.23603079     0.16000
C724        C  0.50318640  0.46266311  0.24353577     0.21800
C725        C  0.50871781  0.45409695  0.26912453    -0.34500
C726        C  0.48321079  0.47414333  0.28643895     0.15900
O727        O  0.44022188  0.52299203  0.29834435    -0.26500
C728        C  0.45967943  0.50978695  0.31859188     0.05700
C729        C  0.48639468  0.47873946  0.31193823    -0.31400
O730        O  0.52829273  0.45290055  0.22508038    -0.23200
C731        C  0.51456309  0.47211293  0.20497103    -0.03200
C732        C  0.48035963  0.49498904  0.21086562    -0.17600
H733        H  0.42772812  0.53253558  0.24754408     0.20400
H734        H  0.53355114  0.43567439  0.27528503     0.18700
H735        H  0.51040991  0.46703364  0.32338103     0.18700
H736        H  0.46631900  0.51757498  0.19935233     0.14500
C737        C  0.98994947  0.52976127  0.53915784     0.30000
C738        C  0.96111905  0.50681937  0.52618738    -0.36400
C739        C  0.96485825  0.50586868  0.49999795     0.16000
C740        C  0.99455177  0.52628830  0.48716707     0.21800
C741        C  0.02330871  0.54952961  0.50015934    -0.34500
C742        C  0.01978468  0.55018134  0.52642702     0.15900
O743        O  0.99343587  0.53313731  0.56377211    -0.26500
C744        C  0.02606389  0.55595392  0.56681627     0.05700
C745        C  0.04348755  0.56753185  0.54423906    -0.31400
O746        O  0.99171718  0.52136011  0.46253647    -0.23200
C747        C  0.95982197  0.49727931  0.45971961    -0.03200
C748        C  0.94215992  0.48682407  0.48242279    -0.17600
H749        H  0.93772994  0.49033383  0.53584357     0.20400
H750        H  0.04702232  0.56558747  0.49052906     0.18700
H751        H  0.07065310  0.58501267  0.54140862     0.18700
H752        H  0.91555220  0.46860325  0.48549094     0.14500
C753        C  0.99905110  0.50269268  0.98144841     0.30000
C754        C  0.02675879  0.52733713  0.99421235    -0.36400
C755        C  0.02754848  0.52340445  0.02035811     0.16000
C756        C  0.00279655  0.49728929  0.03325097     0.21800
C757        C  0.97566804  0.47208378  0.02040986    -0.34500
C758        C  0.97483890  0.47602773  0.99428202     0.15900
O759        O  0.99267384  0.50161125  0.95700753    -0.26500
C760        C  0.96397917  0.47381805  0.95427317     0.05700
C761        C  0.95188657  0.45697158  0.97681886    -0.31400
O762        O  0.00520545  0.50223893  0.05785735    -0.23200
C763        C  0.03210069  0.53175429  0.06069130    -0.03200
C764        C  0.04729605  0.54549537  0.03796307    -0.17600
H765        H  0.04556354  0.54888148  0.98454796     0.20400
H766        H  0.95556830  0.45184934  0.03015332     0.18700
H767        H  0.92987265  0.43335490  0.97981280     0.18700
H768        H  0.06714152  0.57093791  0.03483049     0.14500
C769        C  0.93320002  0.53829933  0.78202190     0.30000
C770        C  0.92224834  0.52804940  0.75721931    -0.36400
C771        C  0.94232069  0.54869000  0.73788657     0.16000
C772        C  0.97108972  0.57778603  0.74259825     0.21800
C773        C  0.98152956  0.58855156  0.76743195    -0.34500
C774        C  0.96172077  0.56764957  0.78676230     0.15900
O775        O  0.92524157  0.51636047  0.80201026    -0.26500
C776        C  0.94886383  0.53138148  0.82009313     0.05700
C777        C  0.97177837  0.56387174  0.81148521    -0.31400
O778        O  0.99218345  0.58675518  0.72226918    -0.23200
C779        C  0.97703655  0.56337939  0.70392425    -0.03200
C780        C  0.94554484  0.53935488  0.71285803    -0.17600
H781        H  0.90263228  0.50262155  0.75321422     0.20400
H782        H  0.00650133  0.60869327  0.77135620     0.18700
H783        H  0.99761655  0.57742294  0.82064574     0.18700
H784        H  0.93217944  0.51344450  0.70342848     0.14500
C785        C  0.48933687  0.52223778  0.53609215     0.30000
C786        C  0.46391682  0.54944787  0.52378977    -0.36400
C787        C  0.46425238  0.54731097  0.49737206     0.16000
C788        C  0.48755287  0.52008816  0.48390353     0.21800
C789        C  0.51276533  0.49297408  0.49615451    -0.34500
C790        C  0.51285299  0.49552418  0.52242561     0.15900
O791        O  0.49358996  0.51808248  0.56068863    -0.26500
C792        C  0.52060958  0.48853414  0.56261132     0.05700
C793        C  0.53352123  0.47379729  0.53931959    -0.31400
O794        O  0.48490029  0.52471154  0.45937926    -0.23200
C795        C  0.45971457  0.55556684  0.45702106    -0.03200
C796        C  0.44574891  0.57055669  0.48004817    -0.17600
H797        H  0.44555099  0.57107727  0.53403118     0.20400
H798        H  0.53161567  0.47177984  0.48590197     0.18700
H799        H  0.55411586  0.44918537  0.53536293     0.18700
H800        H  0.42623344  0.59620366  0.48351986     0.14500
C801        C  0.26887375  0.53658520  0.65040251     0.30000
C802        C  0.30148560  0.53014687  0.66628295    -0.36400
C803        C  0.33603701  0.51432849  0.65494423     0.16000
C804        C  0.33853621  0.50515934  0.62967381     0.21800
C805        C  0.30568637  0.51180030  0.61366023    -0.34500
C806        C  0.27085701  0.52787325  0.62505658     0.15900
O807        O  0.23411217  0.55184292  0.65726587    -0.26500
C808        C  0.21315870  0.55333962  0.63615730     0.05700
C809        C  0.23433313  0.53858777  0.61537027    -0.31400
O810        O  0.37322847  0.48813891  0.62354875    -0.23200
C811        C  0.39283751  0.48648605  0.64524826    -0.03200
C812        C  0.37122554  0.50272231  0.66530057    -0.17600
H813        H  0.29988786  0.53675322  0.68619071     0.20400
H814        H  0.30703559  0.50452686  0.59383954     0.18700
H815        H  0.22465583  0.53691618  0.59604466     0.18700
H816        H  0.37942021  0.50375719  0.68491890     0.14500
C817        C  0.48622376  0.50077649  0.98420075     0.30000
C818        C  0.50820553  0.47015514  0.99591826    -0.36400
C819        C  0.50665220  0.47004286  0.02230421     0.16000
C820        C  0.48507200  0.49801024  0.03628841     0.21800
C821        C  0.46290336  0.52830532  0.02457112    -0.34500
C822        C  0.46461651  0.52855360  0.99828899     0.15900
O823        O  0.48229565  0.50619979  0.95975289    -0.26500
C824        C  0.45796593  0.53807176  0.95830517     0.05700
C825        C  0.44632695  0.55309867  0.98174091    -0.31400
O826        O  0.49043761  0.49432350  0.06071737    -0.23200
C827        C  0.51570182  0.46337073  0.06250223    -0.03200
C828        C  0.52643330  0.44698091  0.03914234    -0.17600
H829        H  0.52562538  0.44823047  0.98526681     0.20400
H830        H  0.44604380  0.55066379  0.03522362     0.18700
H831        H  0.42558808  0.57747304  0.98595918     0.18700
H832        H  0.54815218  0.42341245  0.03509315     0.14500
C833        C  0.15849338  0.55050557  0.77293153     0.30000
C834        C  0.18087153  0.52098691  0.78504780    -0.36400
C835        C  0.21832266  0.53362126  0.79381181     0.16000
C836        C  0.23178460  0.57295638  0.79171209     0.21800
C837        C  0.20907400  0.60266534  0.78036073    -0.34500
C838        C  0.17236946  0.58980535  0.77080245     0.15900
O839        O  0.12880695  0.54270485  0.75761664    -0.26500
C840        C  0.12447417  0.57689130  0.74534511     0.05700
C841        C  0.14974554  0.60770049  0.75325489    -0.31400
O842        O  0.26811302  0.57798857  0.80026469    -0.23200
C843        C  0.27825785  0.54142805  0.80764357    -0.03200
C844        C  0.24871058  0.51230342  0.80409723    -0.17600
H845        H  0.17150719  0.48964046  0.78539942     0.20400
H846        H  0.22075015  0.63277915  0.77732315     0.18700
H847        H  0.15578171  0.63608200  0.74409542     0.18700
H848        H  0.24907862  0.48074714  0.80916153     0.14500
C849        C  0.22099063  0.49798626  0.89415940     0.30000
C850        C  0.19929771  0.46808467  0.88112701    -0.36400
C851        C  0.15737465  0.47040848  0.88291321     0.16000
C852        C  0.13784679  0.49987084  0.89685924     0.21800
C853        C  0.15967403  0.52985126  0.91010918    -0.34500
C854        C  0.20191769  0.52773495  0.90813869     0.15900
O855        O  0.25995358  0.50410149  0.89220030    -0.26500
C856        C  0.26664878  0.53781493  0.90539391     0.05700
C857        C  0.23152842  0.55413094  0.91572197    -0.31400
O858        O  0.09829237  0.49764843  0.89446821    -0.23200
C859        C  0.09264074  0.46653477  0.87866147    -0.03200
C860        C  0.12840505  0.44852168  0.87090031    -0.17600
H861        H  0.21411768  0.44576398  0.86930031     0.20400
H862        H  0.14475623  0.55412799  0.92026319     0.18700
H863        H  0.22778980  0.58318083  0.92503270     0.18700
H864        H  0.13250429  0.42375440  0.85765293     0.14500
C865        C  0.50925119  0.53650449  0.73505226     0.30000
C866        C  0.48388181  0.56097499  0.75009768    -0.36400
C867        C  0.48689580  0.55652548  0.77629921     0.16000
C868        C  0.51291279  0.52961082  0.78713032     0.21800
C869        C  0.53927228  0.50619490  0.77211840    -0.34500
C870        C  0.53643976  0.51082744  0.74592520     0.15900
O871        O  0.50486709  0.52912160  0.71065326    -0.26500
C872        C  0.52995477  0.49856219  0.70547775     0.05700
C873        C  0.55077453  0.48675814  0.72689203    -0.31400
O874        O  0.50446779  0.52351757  0.81115453    -0.23200
C875        C  0.47292665  0.54733053  0.81616271    -0.03200
C876        C  0.46131799  0.56880164  0.79500215    -0.17600
H877        H  0.46050610  0.57920738  0.74190678     0.20400
H878        H  0.55786970  0.48295116  0.78014858     0.18700
H879        H  0.56822555  0.45943190  0.72900915     0.18700
H880        H  0.43367931  0.58556350  0.79265665     0.14500
C881        C  0.76347252  0.23737892  0.65875599     0.30000
C882        C  0.74052046  0.26541320  0.67316860    -0.36400
C883        C  0.71093759  0.28747852  0.66009938     0.16000
C884        C  0.70497181  0.28216552  0.63470233     0.21800
C885        C  0.72712067  0.25400515  0.62058358    -0.34500
C886        C  0.75609983  0.23210118  0.63351935     0.15900
O887        O  0.79482261  0.21570119  0.66622916    -0.26500
C888        C  0.80717380  0.19634651  0.64537572     0.05700
C889        C  0.78373598  0.20537881  0.62468070    -0.31400
O890        O  0.67708696  0.30604824  0.62578397    -0.23200
C891        C  0.66405310  0.32727695  0.64552969    -0.03200
C892        C  0.68391673  0.31691230  0.66762148    -0.17600
H893        H  0.74594335  0.27034034  0.69296001     0.20400
H894        H  0.72260667  0.25004255  0.60061976     0.18700
H895        H  0.78811344  0.19562909  0.60540522     0.18700
H896        H  0.67915973  0.32912509  0.68631872     0.14500
C897        C  0.00703969  0.03315478  0.53497213     0.30000
C898        C  0.04098074  0.02171428  0.52086752    -0.36400
C899        C  0.03606714  0.02077432  0.49471669     0.16000
C900        C  0.00030678  0.03028895  0.48316150     0.21800
C901        C  0.96648958  0.04181497  0.49724706    -0.34500
C902        C  0.97135246  0.04263368  0.52333232     0.15900
O903        O  0.00536709  0.03869766  0.55955903    -0.26500
C904        C  0.96798641  0.05166430  0.56362474     0.05700
C905        C  0.94557878  0.05439566  0.54174806    -0.31400
O906        O  0.00118357  0.02335386  0.45872830    -0.23200
C907        C  0.03805932  0.00929373  0.45448583    -0.03200
C908        C  0.06112850  0.00748762  0.47621981    -0.17600
H909        H  0.06916410  0.01391540  0.52964018     0.20400
H910        H  0.93812647  0.04902725  0.48850082     0.18700
H911        H  0.91565181  0.06667231  0.53956498     0.18700
H912        H  0.09053050  0.99400905  0.47842786     0.14500
C913        C  0.98593280  0.30416558  0.61500147     0.30000
C914        C  0.98638346  0.34506719  0.60804667    -0.36400
C915        C  0.01162363  0.37095707  0.62214119     0.16000
C916        C  0.03511935  0.35740685  0.64154594     0.21800
C917        C  0.03516060  0.31663271  0.64823847    -0.34500
C918        C  0.00969710  0.29100913  0.63438249     0.15900
O919        O  0.96105206  0.27565108  0.60659651    -0.26500
C920        C  0.96929588  0.24391363  0.62078309     0.05700
C921        C  0.99919363  0.25201254  0.63834779    -0.31400
O922        O  0.05362383  0.38702953  0.65367032    -0.23200
C923        C  0.04196804  0.42022925  0.64197277    -0.03200
C924        C  0.01597539  0.41205956  0.62208583    -0.17600
H925        H  0.96680052  0.35634247  0.59360147     0.20400
H926        H  0.05218243  0.30601263  0.66408079     0.18700
H927        H  0.00947679  0.23297487  0.65331354     0.18700
H928        H  0.00090780  0.43343767  0.61019710     0.14500
C929        C  0.95227713  0.30139130  0.71672079     0.30000
C930        C  0.96788269  0.33974664  0.72204203    -0.36400
C931        C  0.94378368  0.36460521  0.73730322     0.16000
C932        C  0.90615076  0.35258213  0.74583539     0.21800
C933        C  0.88872498  0.31636797  0.73779732    -0.34500
C934        C  0.91370490  0.29094652  0.72385459     0.15900
O935        O  0.97294968  0.27020045  0.70820432    -0.26500
C936        C  0.94707467  0.23980066  0.71010913     0.05700
C937        C  0.90969776  0.25100191  0.71929665    -0.31400
O938        O  0.89654690  0.36997219  0.76723325    -0.23200
C939        C  0.92788137  0.39327019  0.77239244    -0.03200
C940        C  0.95699432  0.39320940  0.75375070    -0.17600
H941        H  0.99902195  0.34705348  0.71811970     0.20400
H942        H  0.86082603  0.30551294  0.74581708     0.18700
H943        H  0.88381694  0.23200025  0.72290957     0.18700
H944        H  0.98761062  0.40416856  0.75545251     0.14500
C945        C  0.21828731  0.78836510  0.85830351     0.30000
C946        C  0.25009124  0.76865278  0.84527880    -0.36400
C947        C  0.26867027  0.73610598  0.85768216     0.16000
C948        C  0.25661498  0.72443865  0.88124029     0.21800
C949        C  0.22464786  0.74335616  0.89387482    -0.34500
C950        C  0.20619853  0.77534181  0.88156034     0.15900
O951        O  0.19921965  0.82183419  0.85170867    -0.26500
C952        C  0.17464645  0.82995933  0.87105448     0.05700
C953        C  0.17763036  0.80161062  0.88992075    -0.31400
O954        O  0.27856412  0.69499620  0.89015463    -0.23200
C955        C  0.30524004  0.68659782  0.87219133    -0.03200
C956        C  0.30045407  0.71113099  0.85126126    -0.17600
H957        H  0.26043343  0.77877140  0.82717495     0.20400
H958        H  0.21555647  0.73447126  0.91249521     0.18700
H959        H  0.16309878  0.80209982  0.90811124     0.18700
H960        H  0.31796919  0.71096879  0.83413288     0.14500
C961        C  0.02004621  0.00280800  0.99105177     0.30000
C962        C  0.02567585  0.00526975  0.01706421    -0.36400
C963        C  0.99375099  0.02140246  0.03111187     0.16000
C964        C  0.95838593  0.03398768  0.02033924     0.21800
C965        C  0.95272598  0.03151543  0.99411178    -0.34500
C966        C  0.98506364  0.01564755  0.97991471     0.15900
O967        O  0.04647552  0.98903863  0.97471985    -0.26500
C968        C  0.02887426  0.99314362  0.95253978     0.05700
C969        C  0.99036698  0.00966611  0.95450522    -0.31400
O970        O  0.93236559  0.04764023  0.03726928    -0.23200
C971        C  0.95145531  0.04383263  0.05911280    -0.03200
C972        C  0.98982258  0.02770902  0.05632520    -0.17600
H973        H  0.05325587  0.99538544  0.02575079     0.20400
H974        H  0.92516671  0.04140088  0.98541308     0.18700
H975        H  0.96953938  0.01619769  0.93957711     0.18700
H976        H  0.01143948  0.02107023  0.07080227     0.14500
C977        C  0.98752955  0.99728233  0.73108461     0.30000
C978        C  0.01768175  0.97518962  0.74332917    -0.36400
C979        C  0.01678229  0.97576421  0.76977907     0.16000
C980        C  0.98802512  0.99644648  0.78348645     0.21800
C981        C  0.95709004  0.01747492  0.77120237    -0.34500
C982        C  0.95817988  0.01719762  0.74471198     0.15900
O983        O  0.98825484  0.00808064  0.70720662    -0.26500
C984        C  0.95883124  0.03527468  0.70511867     0.05700
C985        C  0.93893562  0.04147438  0.72802784    -0.31400
O986        O  0.99754357  0.99999942  0.80763690    -0.23200
C987        C  0.03284680  0.98108067  0.80963394    -0.03200
C988        C  0.04570107  0.96511748  0.78654223    -0.17600
H989        H  0.04257027  0.96190251  0.73301690     0.20400
H990        H  0.93597557  0.03617853  0.78158243     0.18700
H991        H  0.91805031  0.06553034  0.73267497     0.18700
H992        H  0.07501578  0.95267446  0.78209668     0.14500
C993        C  0.02398568  0.17229491  0.88744460     0.30000
C994        C  0.00802216  0.20194383  0.90390565    -0.36400
C995        C  0.99334894  0.23720823  0.89265956     0.16000
C996        C  0.99428713  0.24250404  0.86705555     0.21800
C997        C  0.01037715  0.21326029  0.85076659    -0.34500
C998        C  0.02501795  0.17837893  0.86193093     0.15900
O999        O  0.03912921  0.13678921  0.89353662    -0.26500
C1000       C  0.04984252  0.12027400  0.87154472     0.05700
C1001       C  0.04184319  0.14497078  0.85135653    -0.31400
O1002       O  0.97817533  0.27680319  0.86026029    -0.23200
C1003       C  0.96685560  0.29428498  0.88168653    -0.03200
C1004       C  0.97556779  0.27116570  0.90261509    -0.17600
H1005       H  0.00690040  0.19773326  0.92396388     0.20400
H1006       H  0.01112159  0.21732019  0.83068337     0.18700
H1007       H  0.04763887  0.13910746  0.83166023     0.18700
H1008       H  0.96892648  0.27793391  0.92209655     0.14500
C1009       C  0.26190469  0.80466945  0.64112351     0.30000
C1010       C  0.23141470  0.78420838  0.62797404    -0.36400
C1011       C  0.20862612  0.75622516  0.64147857     0.16000
C1012       C  0.21521585  0.74804652  0.66634790     0.21800
C1013       C  0.24594002  0.76907050  0.67974902    -0.34500
C1014       C  0.26888729  0.79776389  0.66612890     0.15900
O1015       O  0.28599075  0.83229871  0.63170347    -0.26500
C1016       C  0.30932497  0.84424752  0.65067720     0.05700
C1017       C  0.30001485  0.82369034  0.67278179    -0.31400
O1018       O  0.19146900  0.71825606  0.67447854    -0.23200
C1019       C  0.16931474  0.70774398  0.65442012    -0.03200
C1020       C  0.17895214  0.73082441  0.63360724    -0.17600
H1021       H  0.22597381  0.78958570  0.60832133     0.20400
H1022       H  0.25183819  0.76319042  0.69927792     0.18700
H1023       H  0.31347003  0.82782949  0.69107285     0.18700
H1024       H  0.16732069  0.72764009  0.61475429     0.14500
C1025       C  0.46271783  0.99775030  0.51985390     0.30000
C1026       C  0.45804349  0.99674088  0.49352569    -0.36400
C1027       C  0.48625149  0.01915839  0.47958962     0.16000
C1028       C  0.51666240  0.04090785  0.49103155     0.21800
C1029       C  0.52165728  0.04143949  0.51713950    -0.34500
C1030       C  0.49372934  0.01908621  0.53095452     0.15900
O1031       O  0.43906188  0.98045626  0.53659931    -0.26500
C1032       C  0.45543411  0.99051973  0.55866940     0.05700
C1033       C  0.48964924  0.01445434  0.55621427    -0.31400
O1034       O  0.53951116  0.06001654  0.47490698    -0.23200
C1035       C  0.52406897  0.05072412  0.45255439    -0.03200
C1036       C  0.49076969  0.02504167  0.45421914    -0.17600
H1037       H  0.43388158  0.98003534  0.48458822     0.20400
H1038       H  0.54559429  0.05847451  0.52608863     0.18700
H1039       H  0.50799978  0.02767449  0.57092773     0.18700
H1040       H  0.47300450  0.01225178  0.43909799     0.14500
C1041       C  0.21385584  0.01724354  0.62486395     0.30000
C1042       C  0.17657938  0.02402095  0.61323410    -0.36400
C1043       C  0.14574822  0.03935937  0.62882157     0.16000
C1044       C  0.15134149  0.04745333  0.65402788     0.21800
C1045       C  0.18844270  0.04108077  0.66552890    -0.34500
C1046       C  0.21901978  0.02580039  0.65004419     0.15900
O1047       O  0.24628661  0.00073061  0.61447443    -0.26500
C1048       C  0.27225097  0.99880148  0.63339176     0.05700
C1049       C  0.25683585  0.01425719  0.65581275    -0.31400
O1050       O  0.11883410  0.06169237  0.66515245    -0.23200
C1051       C  0.09183325  0.06298990  0.64691322    -0.03200
C1052       C  0.10679645  0.04940613  0.62384103    -0.17600
H1053       H  0.17175976  0.01723212  0.59357312     0.20400
H1054       H  0.19301409  0.04713016  0.68530544     0.18700
H1055       H  0.27091011  0.01501733  0.67408329     0.18700
H1056       H  0.09146676  0.04796672  0.60598785     0.14500
C1057       C  0.35054998  0.98351435  0.77547941     0.30000
C1058       C  0.32978980  0.00846728  0.79239937    -0.36400
C1059       C  0.29568245  0.99145381  0.80323146     0.16000
C1060       C  0.28480571  0.95146606  0.79946608     0.21800
C1061       C  0.30728477  0.92562244  0.78404990    -0.34500
C1062       C  0.33935085  0.94353432  0.77144777     0.15900
O1063       O  0.37200195  0.99761551  0.75695254    -0.26500
C1064       C  0.37331689  0.96714937  0.74062992     0.05700
C1065       C  0.35480736  0.93228023  0.74885764    -0.31400
O1066       O  0.24819093  0.94389632  0.80728740    -0.23200
C1067       C  0.23525763  0.97958244  0.81546626    -0.03200
C1068       C  0.26351264  0.01024487  0.81379404    -0.17600
H1069       H  0.33555027  0.04067040  0.79351838     0.20400
H1070       H  0.29642638  0.89573380  0.77897969     0.18700
H1071       H  0.34732188  0.90552609  0.73788100     0.18700
H1072       H  0.25989674  0.04208293  0.81820575     0.14500
C1073       C  0.47049169  0.25214727  0.61352357     0.30000
C1074       C  0.43878888  0.23052603  0.62435604    -0.30000
C1075       C  0.44225970  0.18839595  0.62354669     0.16000
C1076       C  0.47430723  0.16868107  0.61232883     0.21800
C1077       C  0.50566761  0.19034988  0.60095324    -0.34500
C1078       C  0.50255141  0.23267206  0.60212958     0.15900
O1079       O  0.47683592  0.29114828  0.61657284    -0.26500
C1080       C  0.51305229  0.29715617  0.60668937     0.05700
C1081       C  0.53052706  0.26185880  0.59731143    -0.31400
O1082       O  0.47354791  0.12936683  0.61616196    -0.23200
C1083       C  0.44078621  0.12401645  0.63015614    -0.03200
C1084       C  0.42008905  0.15967321  0.63524152    -0.17600
H1085       H  0.41474358  0.24558005  0.63452191     0.20400
H1086       H  0.53204458  0.17535437  0.59338471     0.18700
H1087       H  0.56126692  0.25753503  0.59108497     0.18700
H1088       H  0.39378421  0.16404253  0.64698237     0.14500
C1089       C  0.78091363  0.27697784  0.87131471     0.30000
C1090       C  0.76467605  0.24374610  0.88377447    -0.36400
C1091       C  0.73240267  0.22406468  0.87205568     0.16000
C1092       C  0.71666287  0.23598571  0.84949405     0.21800
C1093       C  0.73349767  0.26936714  0.83671841    -0.34500
C1094       C  0.76630929  0.28928969  0.84853303     0.15900
O1095       O  0.81023714  0.30004079  0.87977204    -0.26500
C1096       C  0.81549625  0.32789893  0.86232920     0.05700
C1097       C  0.78907061  0.32266422  0.84216686    -0.31400
O1098       O  0.68414731  0.21454523  0.84318082    -0.23200
C1099       C  0.67947925  0.18860719  0.86201901    -0.03200
C1100       C  0.70885264  0.19342796  0.88031631    -0.17600
H1101       H  0.77588945  0.23444309  0.90180565     0.20400
H1102       H  0.72129112  0.27967675  0.81917821     0.18700
H1103       H  0.78660022  0.34091508  0.82559729     0.18700
H1104       H  0.71107503  0.17806253  0.89802317     0.14500
C1105       C  0.51282889  0.00101508  0.98036778     0.30000
C1106       C  0.49097913  0.97016631  0.99207320    -0.36400
C1107       C  0.48738592  0.97318352  0.01830419     0.16000
C1108       C  0.50428786  0.00411526  0.03236625     0.21800
C1109       C  0.52646850  0.03489037  0.02064611    -0.34500
C1110       C  0.52982614  0.03205219  0.99431118     0.15900
O1111       O  0.51797395  0.00538960  0.95590946    -0.26500
C1112       C  0.53859004  0.03981207  0.95405634     0.05700
C1113       C  0.54686675  0.05750120  0.97740920    -0.31400
O1114       O  0.49638081  0.00101230  0.05670935    -0.23200
C1115       C  0.47391296  0.96763346  0.05814445    -0.03200
C1116       C  0.46758660  0.94930356  0.03476931    -0.17600
H1117       H  0.47696070  0.94589890  0.98141960     0.20400
H1118       H  0.53955175  0.05974691  0.03123886     0.18700
H1119       H  0.56197871  0.08590711  0.98130946     0.18700
H1120       H  0.45072061  0.92204149  0.03050464     0.14500
C1121       C  0.35679459  0.01134907  0.89956786     0.30000
C1122       C  0.33466787  0.97689807  0.90630318    -0.36400
C1123       C  0.29309205  0.98243808  0.90980410     0.16000
C1124       C  0.27462971  0.01939808  0.90698322     0.21800
C1125       C  0.29674735  0.05381343  0.90036684    -0.34500
C1126       C  0.33812689  0.04817893  0.89660704     0.15900
O1127       O  0.39530838  0.01240857  0.89336044    -0.26500
C1128       C  0.40117593  0.05031993  0.88612889     0.05700
C1129       C  0.36663838  0.07385566  0.88769938    -0.31400
O1130       O  0.23505766  0.01670273  0.90757800    -0.23200
C1131       C  0.22777684  0.97766041  0.91120769    -0.03200
C1132       C  0.26284941  0.95488346  0.91261181    -0.17600
H1133       H  0.34852836  0.94741354  0.90740465     0.20400
H1134       H  0.28229325  0.08245749  0.89689064     0.18700
H1135       H  0.36282597  0.10496145  0.88218721     0.18700
H1136       H  0.26550378  0.92227787  0.91258567     0.14500
C1137       C  0.54516151  0.25124607  0.72706097     0.30000
C1138       C  0.57300519  0.22714382  0.73921640    -0.36400
C1139       C  0.55749808  0.19224912  0.74983776     0.16000
C1140       C  0.51748471  0.18104200  0.74775070     0.21800
C1141       C  0.48984846  0.20465901  0.73479371    -0.34500
C1142       C  0.50508150  0.24059186  0.72519107     0.15900
O1143       O  0.55268386  0.28685238  0.71790091    -0.26500
C1144       C  0.51696966  0.29947255  0.71044236     0.05700
C1145       C  0.48596833  0.27219709  0.71451514    -0.31400
O1146       O  0.50754057  0.15311982  0.76377627    -0.23200
C1147       C  0.54111686  0.14727084  0.77651907    -0.03200
C1148       C  0.57350387  0.16984597  0.76826491    -0.17600
H1149       H  0.60376244  0.23686974  0.74218246     0.20400
H1150       H  0.45803236  0.19763328  0.73452070     0.18700
H1151       H  0.45445775  0.27489985  0.70979150     0.18700
H1152       H  0.60230562  0.17421086  0.77734366     0.14500
C1153       C  0.50715263  0.28894606  0.89838386     0.30000
C1154       C  0.49884670  0.32607826  0.91084161    -0.36400
C1155       C  0.48174769  0.35667651  0.89600848     0.16000
C1156       C  0.47400004  0.35085687  0.87080707     0.21800
C1157       C  0.48208291  0.31429496  0.85859254    -0.34500
C1158       C  0.49845477  0.28409219  0.87327187     0.15900
O1159       O  0.52414317  0.25610263  0.90780150    -0.26500
C1160       C  0.52579814  0.23042313  0.88821649     0.05700
C1161       C  0.50992885  0.24650838  0.86652703    -0.31400
O1162       O  0.45760890  0.38235873  0.86030950    -0.23200
C1163       C  0.45424012  0.40930093  0.87881648    -0.03200
C1164       C  0.46883280  0.39519348  0.90162457    -0.17600
H1165       H  0.50519305  0.33078392  0.93054403     0.20400
H1166       H  0.47584700  0.30963381  0.83886275     0.18700
H1167       H  0.50846849  0.23284030  0.84797877     0.18700
H1168       H  0.46906783  0.41064414  0.91964636     0.14500
C1169       C  0.53826744  0.99806110  0.72912207     0.30000
C1170       C  0.55993665  0.01769345  0.74853129    -0.36400
C1171       C  0.55313062  0.00403172  0.77313021     0.16000
C1172       C  0.52576141  0.97401838  0.77834864     0.21800
C1173       C  0.50528897  0.95335188  0.75884827    -0.34500
C1174       C  0.51301720  0.96616190  0.73418656     0.15900
O1175       O  0.53388770  0.01120723  0.70592852    -0.26500
C1176       C  0.50651731  0.98660642  0.69539267     0.05700
C1177       C  0.49301612  0.95768348  0.71228054    -0.31400
O1178       O  0.51644575  0.97296347  0.80252719    -0.23200
C1179       C  0.53902609  0.00173679  0.81344048    -0.03200
C1180       C  0.56307707  0.02131446  0.79580690    -0.17600
H1181       H  0.57811216  0.04419536  0.74498092     0.20400
H1182       H  0.48214034  0.93126491  0.76278800     0.18700
H1183       H  0.46707305  0.93811561  0.71014156     0.18700
H1184       H  0.57954915  0.04927015  0.79860196     0.14500
loop_ 
_geom_bond_atom_site_label_1 
_geom_bond_atom_site_label_2 
_geom_bond_distance 
_geom_bond_site_symmetry_2 
_ccdc_geom_bond_type 
O1           Ni7   1.915       .  S
O1           C22   1.270       .  A
O2          Ni25   1.913       .  S
O2           C11   1.282       .  A
O3           Ni7   1.880       .  S
O3          Ni25   1.876       .  S
O3          Ni19   1.922       .  S
O3           H26   0.965       .  S
C4           O21   1.286       .  A
C4           O13   1.284       .  A
C4         C1099   1.491       .  S
O5          Ni24   1.952       .  S
O5           C11   1.285       .  A
O6          Ni24   1.941       .  S
O6            C8   1.274       .  A
Ni7          O10   1.914       .  S
Ni7          O12   1.906       .  S
C8           O18   1.268       .  A
C8         C1160   1.479       .  S
O9          Ni25   1.950       .  S
O9           C15   1.281       .  A
O10          C15   1.275       .  A
C11        C1112   1.486       .  S
O12          C14   1.262       .  A
O13         Ni24   1.944       .  S
C14          O20   1.289       .  A
C14        C1179   1.488       .  S
C15        C1128   1.471       .  S
H16          O17   0.967       .  S
O17         Ni25   1.913       .  S
O17         Ni19   1.887       .  S
O17         Ni24   1.891       .  S
O18         Ni19   1.908       .  S
Ni19         O23   1.892       .  S
Ni19         O21   1.939       .  S
O20         Ni25   1.983       .  S
C22          O23   1.273       .  A
C22        C1147   1.442       .  S
O27         Ni33   1.913       .  S
O27          C48   1.271   1_545  A
O28         Ni51   1.902       .  S
O28          C37   1.279       .  A
O29         Ni33   1.873       .  S
O29         Ni51   1.867   1_545  S
O29         Ni45   1.924   1_545  S
O29          H52   0.964       .  S
C30          O47   1.289       .  A
C30          O39   1.284       .  A
C30        C1016   1.499       .  S
O31         Ni50   1.961       .  S
O31          C37   1.285       .  A
O32         Ni50   1.936       .  S
O32          C34   1.275       .  A
Ni33         O36   1.916       .  S
Ni33         O38   1.906       .  S
C34          O44   1.270       .  A
C34        C1048   1.473       .  S
O35         Ni51   1.944   1_545  S
O35          C41   1.280       .  A
O36          C41   1.276       .  A
C37        C1032   1.483       .  S
O38          C40   1.262       .  A
O39         Ni50   1.948       .  S
C40          O46   1.289   1_545  A
C40        C1176   1.488   1_545  S
C41        C1083   1.469       .  S
H42          O43   0.966       .  S
O43         Ni51   1.914       .  S
O43         Ni45   1.890       .  S
O43         Ni50   1.890       .  S
O44         Ni45   1.918       .  S
Ni45         O49   1.897       .  S
Ni45         O47   1.950       .  S
O46         Ni51   1.981       .  S
C48          O49   1.277       .  A
C48        C1064   1.443       .  S
O53         Ni59   1.913       .  S
O53          C74   1.268   1_545  A
O54         Ni77   1.926   1_565  S
O54          C63   1.281       .  A
O55         Ni59   1.885       .  S
O55         Ni77   1.889       .  S
O55         Ni71   1.954   1_545  S
O55          H78   0.966       .  S
C56          O73   1.278       .  A
C56          O65   1.282       .  A
C56         C952   1.486       .  S
O57         Ni76   1.929       .  S
O57          C63   1.277       .  A
O58         Ni76   1.927       .  S
O58          C60   1.267       .  A
Ni59         O62   1.923       .  S
Ni59         O64   1.899   1_545  S
C60          O70   1.263       .  A
C60        C1131   1.466       .  S
O61         Ni77   1.925       .  S
O61          C67   1.266       .  A
O62          C67   1.267       .  A
C63         C968   1.479       .  S
O64          C66   1.280       .  A
O65         Ni76   1.946       .  S
C66          O72   1.306       .  A
C66         C987   1.496       .  S
C67        C1000   1.474       .  S
H68          O69   0.967       .  S
O69         Ni77   1.903   1_565  S
O69         Ni71   1.883       .  S
O69         Ni76   1.899       .  S
O70         Ni71   1.920       .  S
Ni71         O75   1.882       .  S
Ni71         O73   1.924       .  S
O72         Ni77   2.015   1_565  S
C74          O75   1.259       .  A
C74        C1067   1.446       .  S
O79         Ni85   1.922   1_655  S
O79         C100   1.268       .  A
O80        Ni103   1.906       .  S
O80          C89   1.278       .  A
O81         Ni85   1.878   1_655  S
O81        Ni103   1.874       .  S
O81         Ni97   1.957       .  S
O81         H104   0.962       .  S
C82          O99   1.280       .  A
C82          O91   1.281       .  A
C82         C888   1.488       .  S
O83        Ni102   1.928       .  S
O83          C89   1.278       .  A
O84        Ni102   1.938       .  S
O84          C86   1.271       .  A
Ni85         O88   1.933       .  S
Ni85         O90   1.898   1_455  S
C86          O96   1.266       .  A
C86         C920   1.476       .  S
O87        Ni103   1.908   1_455  S
O87          C93   1.264       .  A
O88          C93   1.269       .  A
C89         C904   1.467       .  S
O90          C92   1.278       .  A
O91        Ni102   1.940       .  S
C92          O98   1.307       .  A
C92         C984   1.491       .  S
C93        C1051   1.469       .  S
H94          O95   0.967       .  S
O95        Ni103   1.902       .  S
O95         Ni97   1.873       .  S
O95        Ni102   1.901       .  S
O96         Ni97   1.926       .  S
Ni97        O101   1.871       .  S
Ni97         O99   1.931       .  S
O98        Ni103   2.015       .  S
C100        O101   1.257       .  A
C100        C936   1.443       .  S
O105       Ni111   1.912       .  S
O105        C126   1.267       .  A
O106       Ni129   1.907       .  S
O106        C115   1.278       .  A
O107       Ni111   1.887       .  S
O107       Ni129   1.881       .  S
O107       Ni123   1.957       .  S
O107        H130   0.965       .  S
C108        O125   1.281       .  A
C108        O117   1.279       .  A
C108        C955   1.487       .  S
O109       Ni128   1.935       .  S
O109        C115   1.280       .  A
O110       Ni128   1.932       .  S
O110        C112   1.272       .  A
Ni111       O114   1.923       .  S
Ni111       O116   1.886       .  S
C112        O122   1.266       .  A
C112        C856   1.468       .  S
O113       Ni129   1.919       .  S
O113        C119   1.262       .  A
O114        C119   1.265       .  A
C115        C824   1.478       .  S
O116        C118   1.277       .  A
O117       Ni128   1.942       .  S
C118        O124   1.307       .  A
C118        C875   1.489       .  S
C119       C1163   1.472       .  S
H120        O121   0.967       .  S
O121       Ni129   1.906       .  S
O121       Ni123   1.874       .  S
O121       Ni128   1.901       .  S
O122       Ni123   1.924       .  S
Ni123       O127   1.870       .  S
Ni123       O125   1.939       .  S
O124       Ni129   2.017       .  S
C126        O127   1.259       .  A
C126        C843   1.435       .  S
O131       Ni137   1.915       .  S
O131        C152   1.267       .  A
O132       Ni155   1.926       .  S
O132        C141   1.281       .  A
O133       Ni137   1.893       .  S
O133       Ni155   1.891       .  S
O133       Ni149   1.949       .  S
O133        H156   0.965       .  S
C134        O151   1.276       .  A
C134        O143   1.277       .  A
C134        C891   1.486       .  S
O135       Ni154   1.919       .  S
O135        C141   1.275       .  A
O136       Ni154   1.916       .  S
O136        C138   1.267       .  A
Ni137       O140   1.925       .  S
Ni137       O142   1.887       .  S
C138        O148   1.268       .  A
C138       C1080   1.461       .  S
O139       Ni155   1.919       .  S
O139        C145   1.264       .  A
O140        C145   1.265       .  A
C141        C792   1.484       .  S
O142        C144   1.275       .  A
O143       Ni154   1.939       .  S
C144        O150   1.306       .  A
C144        C872   1.489       .  S
C145        C811   1.469       .  S
H146        O147   0.967       .  S
O147       Ni155   1.912       .  S
O147       Ni149   1.887       .  S
O147       Ni154   1.908       .  S
O148       Ni149   1.926       .  S
Ni149       O153   1.875       .  S
Ni149       O151   1.933       .  S
O150       Ni155   2.018       .  S
C152        O153   1.259       .  A
C152       C1144   1.442       .  S
O157       Ni163   1.920   1_655  S
O157        C178   1.272       .  A
O158       Ni181   1.901       .  S
O158        C167   1.276       .  A
O159       Ni163   1.876   1_655  S
O159       Ni181   1.869       .  S
O159       Ni175   1.920       .  S
O159        H182   0.965       .  S
C160        O177   1.284       .  A
C160        O169   1.277       .  A
C160       C1096   1.487       .  S
O161       Ni180   1.930       .  S
O161        C167   1.278       .  A
O162       Ni180   1.919       .  S
O162        C164   1.272       .  A
Ni163       O166   1.919       .  S
Ni163       O168   1.901   1_455  S
C164        O174   1.273       .  A
C164       C1003   1.468       .  S
O165       Ni181   1.949   1_455  S
O165        C171   1.281       .  A
O166        C171   1.278       .  A
C167        C760   1.468       .  S
O168        C170   1.261       .  A
O169       Ni180   1.930       .  S
C170        O176   1.284       .  A
C170        C776   1.480       .  S
C171        C859   1.476       .  S
H172        O173   0.967       .  S
O173       Ni181   1.921       .  S
O173       Ni175   1.892       .  S
O173       Ni180   1.889       .  S
O174       Ni175   1.931       .  S
Ni175       O179   1.895       .  S
Ni175       O177   1.946       .  S
O176       Ni181   1.973       .  S
C178        O179   1.276       .  A
C178        C939   1.448       .  S
O183       Ni189   1.911       .  S
O183        C204   1.267       .  A
O184       Ni207   1.906       .  S
O184        C193   1.278       .  A
O185       Ni189   1.876       .  S
O185       Ni207   1.864       .  S
O185       Ni201   1.929       .  S
O185        H208   0.965       .  S
C186        O203   1.288       .  A
C186        O195   1.282       .  A
C186       C1019   1.501       .  S
O187       Ni206   1.933       .  S
O187        C193   1.279       .  A
O188       Ni206   1.930       .  S
O188        C190   1.271       .  A
Ni189       O192   1.914       .  S
Ni189       O194   1.897       .  S
C190        O200   1.267       .  A
C190        C808   1.469       .  S
O191       Ni207   1.956       .  S
O191        C197   1.286       .  A
O192        C197   1.278       .  A
C193        C744   1.470       .  S
O194        C196   1.258       .  A
O195       Ni206   1.938       .  S
C196        O202   1.287       .  A
C196        C779   1.486   1_455  S
C197        C923   1.476       .  S
H198        O199   0.967       .  S
O199       Ni207   1.921       .  S
O199       Ni201   1.887       .  S
O199       Ni206   1.889       .  S
O200       Ni201   1.914       .  S
Ni201       O205   1.882       .  S
Ni201       O203   1.952       .  S
O202       Ni207   1.987       .  S
C204        O205   1.272       .  A
C204        C840   1.432       .  S
O209       Ni215   1.938       .  S
O209        C230   1.281       .  A
O210       Ni233   1.877       .  S
O210        C219   1.268       .  A
O211       Ni215   1.892       .  S
O211       Ni233   1.880       .  S
O211       Ni227   1.911       .  S
O211        H234   0.968       .  S
C212        O229   1.281       .  A
C212        O221   1.279       .  A
C212        C680   1.473       .  S
O213       Ni232   1.933       .  S
O213        C219   1.276       .  A
O214       Ni232   1.891       .  S
O214        C216   1.260       .  A
Ni215       O218   1.936       .  S
Ni215       O220   1.942       .  S
C216        O226   1.293       .  A
C216        C728   1.488       .  S
O217       Ni233   1.934       .  S
O217        C223   1.282       .  A
O218        C223   1.281       .  A
C219        C712   1.449       .  S
O220        C222   1.274       .  A
O221       Ni232   1.923       .  S
C222        O228   1.269       .  A
C222        C696   1.484       .  S
C223        C667   1.479       .  S
H224        O225   0.977       .  S
O225       Ni233   1.917       .  S
O225       Ni227   1.872       .  S
O225       Ni232   1.870       .  S
O226       Ni227   1.994       .  S
Ni227       O231   1.914       .  S
Ni227       O229   1.940       .  S
O228       Ni233   1.927       .  S
C230        O231   1.282       .  A
C230        C795   1.477       .  S
O235       Ni241   1.930       .  S
O235        C256   1.277       .  A
O236       Ni259   1.870       .  S
O236        C245   1.260       .  A
O237       Ni241   1.907       .  S
O237       Ni259   1.882       .  S
O237       Ni253   1.908       .  S
O237        H260   0.967       .  S
C238        O255   1.263       .  A
C238        O247   1.267       .  A
C238        C651   1.476       .  S
O239       Ni258   1.918       .  S
O239        C245   1.269       .  A
O240       Ni258   1.892       .  S
O240        C242   1.276       .  A
Ni241       O244   1.940       .  S
Ni241       O246   1.924       .  S
C242        O252   1.308       .  A
C242        C731   1.493       .  S
O243       Ni259   1.931       .  S
O243        C249   1.277       .  A
O244        C249   1.278       .  A
C245        C635   1.444       .  S
O246        C248   1.270       .  A
O247       Ni258   1.933       .  S
C248        O254   1.266       .  A
C248        C616   1.463       .  S
C249        C600   1.483       .  S
H250        O251   0.965       .  S
O251       Ni259   1.949       .  S
O251       Ni253   1.882       .  S
O251       Ni258   1.892       .  S
O252       Ni253   2.023       .  S
Ni253       O257   1.915       .  S
Ni253       O255   1.923       .  S
O254       Ni259   1.926       .  S
C256        O257   1.279       .  A
C256        C827   1.480       .  S
O261       Ni267   1.937       .  S
O261        C282   1.280       .  A
O262       Ni285   1.874       .  S
O262        C271   1.257       .  A
O263       Ni267   1.898       .  S
O263       Ni285   1.879       .  S
O263       Ni279   1.907       .  S
O263        H286   0.967       .  S
C264        O281   1.264       .  A
C264        O273   1.268       .  A
C264        C699   1.481       .  S
O265       Ni284   1.921   1_545  S
O265        C271   1.270       .  A
O266       Ni284   1.894   1_545  S
O266        C268   1.278       .  A
Ni267       O270   1.955       .  S
Ni267       O272   1.931       .  S
C268        O278   1.311       .  A
C268        C584   1.499       .  S
O269       Ni285   1.931       .  S
O269        C275   1.279       .  A
O270        C275   1.283       .  A
C271        C568   1.443       .  S
O272        C274   1.269       .  A
O273       Ni284   1.936       .  S
C274        O280   1.265       .  A
C274        C555   1.471       .  S
C275        C539   1.491       .  S
H276        O277   0.965       .  S
O277       Ni285   1.957       .  S
O277       Ni279   1.882       .  S
O277       Ni284   1.883   1_545  S
O278       Ni279   2.027       .  S
Ni279       O283   1.918       .  S
Ni279       O281   1.920   1_545  S
O280       Ni285   1.931       .  S
C282        O283   1.281       .  A
C282       C1035   1.483       .  S
O287       Ni293   1.943       .  S
O287        C308   1.282       .  A
O288       Ni311   1.890       .  S
O288        C297   1.261       .  A
O289       Ni293   1.907       .  S
O289       Ni311   1.879       .  S
O289       Ni305   1.906       .  S
O289        H312   0.967       .  S
C290        O307   1.264       .  A
C290        O299   1.270       .  A
C290        C523   1.480       .  S
O291       Ni310   1.913       .  S
O291        C297   1.268       .  A
O292       Ni310   1.891       .  S
O292        C294   1.274       .  A
Ni293       O296   1.956       .  S
Ni293       O298   1.950       .  S
C294        O304   1.311       .  A
C294        C587   1.496   1_565  S
O295       Ni311   1.940       .  S
O295        C301   1.284       .  A
O296        C301   1.285       .  A
C297        C715   1.444       .  S
O298        C300   1.271       .  A
O299       Ni310   1.938       .  S
C300        O306   1.264       .  A
C300        C648   1.487       .  S
C301        C504   1.500       .  S
H302        O303   0.965       .  S
O303       Ni311   1.967       .  S
O303       Ni305   1.885       .  S
O303       Ni310   1.882       .  S
O304       Ni305   2.029       .  S
Ni305       O309   1.920       .  S
Ni305       O307   1.918       .  S
O306       Ni311   1.914       .  S
C308        O309   1.281       .  A
C308       C1115   1.488       .  S
O313       Ni319   1.920       .  S
O313        C334   1.276       .  A
O314       Ni337   1.884       .  S
O314        C323   1.266       .  A
O315       Ni319   1.900       .  S
O315       Ni337   1.893       .  S
O315       Ni331   1.932       .  S
O315        H338   0.966       .  S
C316        O333   1.285       .  A
C316        O325   1.276       .  A
C316        C619   1.474       .  S
O317       Ni336   1.905       .  S
O317        C323   1.265   1_655  A
O318       Ni336   1.904       .  S
O318        C320   1.263   1_655  A
Ni319       O322   1.933       .  S
Ni319       O324   1.926       .  S
C320        O330   1.291       .  A
C320        C491   1.493       .  S
O321       Ni337   1.951       .  S
O321        C327   1.285       .  A
O322        C327   1.278       .  A
C323        C472   1.428   1_455  S
O324        C326   1.269       .  A
O325       Ni336   1.906       .  S
C326        O332   1.265       .  A
C326        C459   1.468   1_455  S
C327        C507   1.494       .  S
H328        O329   0.966       .  S
O329       Ni337   1.925   1_655  S
O329       Ni331   1.868   1_655  S
O329       Ni336   1.877       .  S
O330       Ni331   1.989       .  S
Ni331       O335   1.915       .  S
Ni331       O333   1.959   1_455  S
O332       Ni337   1.914       .  S
C334        O335   1.280       .  A
C334        C763   1.471       .  S
O339       Ni345   1.932       .  S
O339        C360   1.280       .  A
O340       Ni363   1.895       .  S
O340        C349   1.275       .  A
O341       Ni345   1.884       .  S
O341       Ni363   1.891       .  S
O341       Ni357   1.916       .  S
O341        H364   0.967       .  S
C342        O359   1.280       .  A
C342        O351   1.274       .  A
C342        C443   1.473       .  S
O343       Ni362   1.908       .  S
O343        C349   1.270       .  A
O344       Ni362   1.908       .  S
O344        C346   1.264       .  A
Ni345       O348   1.927       .  S
Ni345       O350   1.925       .  S
C346        O356   1.289       .  A
C346        C488   1.493       .  S
O347       Ni363   1.956       .  S
O347        C353   1.288       .  A
O348        C353   1.280       .  A
C349        C632   1.437       .  S
O350        C352   1.271       .  A
O351       Ni362   1.918       .  S
C352        O358   1.269       .  A
C352        C683   1.468       .  S
C353        C536   1.499       .  S
H354        O355   0.964       .  S
O355       Ni363   1.926       .  S
O355       Ni357   1.871       .  S
O355       Ni362   1.874       .  S
O356       Ni357   1.984       .  S
Ni357       O361   1.910       .  S
Ni357       O359   1.946       .  S
O358       Ni363   1.922       .  S
C360        O361   1.279       .  A
C360        C747   1.476       .  S
O365       Ni371   1.921       .  S
O365        C386   1.276       .  A
O366       Ni389   1.879       .  S
O366        C375   1.261       .  A
O367       Ni371   1.899       .  S
O367       Ni389   1.894       .  S
O367       Ni383   1.926       .  S
O367        H390   0.966       .  S
C368        O385   1.282       .  A
C368        O377   1.274       .  A
C368        C552   1.478       .  S
O369       Ni388   1.905   1_455  S
O369        C375   1.265       .  A
O370       Ni388   1.907       .  S
O370        C372   1.266   1_655  A
Ni371       O374   1.934       .  S
Ni371       O376   1.930       .  S
C372        O382   1.288       .  A
C372        C427   1.491   1_565  S
O373       Ni389   1.927       .  S
O373        C379   1.278       .  A
O374        C379   1.279       .  A
C375        C475   1.433       .  S
O376        C378   1.269       .  A
O377       Ni388   1.912       .  S
C378        O384   1.263       .  A
C378        C440   1.466       .  S
C379        C664   1.482       .  S
H380        O381   0.965   1_655  S
O381       Ni389   1.924       .  S
O381       Ni383   1.875       .  S
O381       Ni388   1.883   1_455  S
O382       Ni383   1.977       .  S
Ni383       O387   1.909       .  S
Ni383       O385   1.954   1_455  S
O384       Ni389   1.914       .  S
C386        O387   1.279       .  A
C386        C907   1.468   1_565  S
O391       Ni397   1.958       .  S
O391        C412   1.286       .  A
O392       Ni415   1.886       .  S
O392        C401   1.271       .  A
O393       Ni397   1.886       .  S
O393       Ni415   1.881       .  S
O393       Ni409   1.903       .  S
O393        H416   0.967       .  S
C394        O411   1.280       .  A
C394        O403   1.275       .  A
C394        C456   1.472       .  S
O395       Ni414   1.919   1_545  S
O395        C401   1.272       .  A
O396       Ni414   1.903       .  S
O396        C398   1.262   1_565  A
Ni397       O400   1.952       .  S
Ni397       O402   1.944       .  S
C398        O408   1.291       .  A
C398        C424   1.491       .  S
O399       Ni415   1.924       .  S
O399        C405   1.283       .  A
O400        C405   1.286       .  A
C401        C571   1.448       .  S
O402        C404   1.275       .  A
O403       Ni414   1.915       .  S
C404        O410   1.267       .  A
C404        C520   1.480       .  S
C405        C603   1.480       .  S
H406        O407   0.965       .  S
O407       Ni415   1.919       .  S
O407       Ni409   1.878       .  S
O407       Ni414   1.876   1_545  S
O408       Ni409   1.990       .  S
Ni409       O413   1.906       .  S
Ni409       O411   1.946   1_545  S
O410       Ni415   1.918       .  S
C412        O413   1.282       .  A
C412        C971   1.483       .  S
C417        C422   1.376   1_455  A
C417        C418   1.414       .  A
C417        O423   1.328       .  A
C418        C419   1.413       .  A
C418        H429   1.082   1_545  S
C419        C428   1.373   1_545  A
C419        C420   1.377       .  A
C420        C421   1.413   1_455  A
C420        O426   1.329   1_455  A
C421        C422   1.413       .  A
C421        H430   1.082       .  S
C422        C425   1.373       .  A
O423        C424   1.340   1_455  A
C424        C425   1.400       .  A
C425        H431   1.082       .  S
O426        C427   1.338   1_655  A
C427        C428   1.399   1_545  A
C428        H432   1.083       .  S
C433        C438   1.379   1_455  A
C433        C434   1.406       .  A
C433        O439   1.321       .  A
C434        C435   1.405   1_455  A
C434        H445   1.082       .  S
C435        C444   1.365       .  A
C435        C436   1.380       .  A
C436        C437   1.404       .  A
C436        O442   1.320       .  A
C437        C438   1.404       .  A
C437        H446   1.082       .  S
C438        C441   1.362       .  A
O439        C440   1.333       .  A
C440        C441   1.392   1_455  A
C441        H447   1.083       .  S
O442        C443   1.331       .  A
C443        C444   1.392       .  A
C444        H448   1.082   1_655  S
C449        C454   1.380       .  A
C449        C450   1.399       .  A
C449        O455   1.315       .  A
C450        C451   1.399       .  A
C450        H461   1.082       .  S
C451        C460   1.357       .  A
C451        C452   1.380       .  A
C452        C453   1.410       .  A
C452        O458   1.324   1_655  A
C453        C454   1.409       .  A
C453        H462   1.082   1_655  S
C454        C457   1.369       .  A
O455        C456   1.328       .  A
C456        C457   1.395       .  A
C457        H463   1.083       .  S
O458        C459   1.334   1_455  A
C459        C460   1.389       .  A
C460        H464   1.083       .  S
C465        C470   1.385       .  A
C465        C466   1.392       .  A
C465        O471   1.305       .  A
C466        C467   1.389       .  A
C466        H477   1.083       .  S
C467        C476   1.350       .  A
C467        C468   1.383   1_655  A
C468        C469   1.393       .  A
C468        O474   1.306       .  A
C469        C470   1.391   1_455  A
C469        H478   1.083       .  S
C470        C473   1.352   1_655  A
O471        C472   1.322       .  A
C472        C473   1.381   1_655  A
C473        H479   1.083       .  S
O474        C475   1.324       .  A
C475        C476   1.382   1_455  A
C476        H480   1.083       .  S
C481        C486   1.377   1_455  A
C481        C482   1.412       .  A
C481        O487   1.327       .  A
C482        C483   1.411       .  A
C482        H493   1.082       .  S
C483        C492   1.373       .  A
C483        C484   1.376       .  A
C484        C485   1.416   1_455  A
C484        O490   1.330   1_455  A
C485        C486   1.415       .  A
C485        H494   1.082       .  S
C486        C489   1.377       .  A
O487        C488   1.338   1_455  A
C488        C489   1.400       .  A
C489        H495   1.083       .  S
O490        C491   1.341   1_655  A
C491        C492   1.397       .  A
C492        H496   1.083       .  S
C497        C502   1.378       .  A
C497        C498   1.421       .  A
C497        O503   1.334       .  A
C498        C499   1.419       .  A
C498        H509   1.082       .  S
C499        C508   1.384       .  A
C499        C500   1.378       .  A
C500        C501   1.403       .  A
C500        O506   1.318       .  A
C501        C502   1.403       .  A
C501        H510   1.082       .  S
C502        C505   1.362       .  A
O503        C504   1.341       .  A
C504        C505   1.394       .  A
C505        H511   1.083       .  S
O506        C507   1.333       .  A
C507        C508   1.401       .  A
C508        H512   1.082       .  S
C513        C518   1.379       .  A
C513        C514   1.401       .  A
C513        O519   1.314       .  A
C514        C515   1.398   1_545  A
C514        H525   1.082       .  S
C515        C524   1.359       .  A
C515        C516   1.379       .  A
C516        C517   1.413       .  A
C516        O522   1.326       .  A
C517        C518   1.412   1_565  A
C517        H526   1.082       .  S
C518        C521   1.376       .  A
O519        C520   1.331       .  A
C520        C521   1.396       .  A
C521        H527   1.082       .  S
O522        C523   1.337       .  A
C523        C524   1.389       .  A
C524        H528   1.083       .  S
C529        C534   1.377       .  A
C529        C530   1.422       .  A
C529        O535   1.339       .  A
C530        C531   1.424       .  A
C530        H541   1.082       .  S
C531        C540   1.383       .  A
C531        C532   1.379       .  A
C532        C533   1.396       .  A
C532        O538   1.316       .  A
C533        C534   1.397       .  A
C533        H542   1.083       .  S
C534        C537   1.350       .  A
O535        C536   1.343       .  A
C536        C537   1.392       .  A
C537        H543   1.083       .  S
O538        C539   1.329       .  A
C539        C540   1.404       .  A
C540        H544   1.082       .  S
C545        C550   1.380   1_545  A
C545        C546   1.408       .  A
C545        O551   1.325       .  A
C546        C547   1.409       .  A
C546        H557   1.082       .  S
C547        C556   1.367       .  A
C547        C548   1.380       .  A
C548        C549   1.404   1_545  A
C548        O554   1.320       .  A
C549        C550   1.403       .  A
C549        H558   1.082       .  S
C550        C553   1.361       .  A
O551        C552   1.333   1_545  A
C552        C553   1.392       .  A
C553        H559   1.083       .  S
O554        C555   1.331       .  A
C555        C556   1.394       .  A
C556        H560   1.083       .  S
C561        C566   1.383       .  A
C561        C562   1.393       .  A
C561        O567   1.308       .  A
C562        C563   1.394       .  A
C562        H573   1.083       .  S
C563        C572   1.354       .  A
C563        C564   1.388       .  A
C564        C565   1.397       .  A
C564        O570   1.310       .  A
C565        C566   1.393       .  A
C565        H574   1.083       .  S
C566        C569   1.357       .  A
O567        C568   1.324       .  A
C568        C569   1.384       .  A
C569        H575   1.083       .  S
O570        C571   1.323       .  A
C571        C572   1.384       .  A
C572        H576   1.083       .  S
C577        C582   1.376       .  A
C577        C578   1.414       .  A
C577        O583   1.323       .  A
C578        C579   1.412       .  A
C578        H589   1.082       .  S
C579        C588   1.377       .  A
C579        C580   1.376       .  A
C580        C581   1.418       .  A
C580        O586   1.328   1_545  A
C581        C582   1.415       .  A
C581        H590   1.082       .  S
C582        C585   1.383       .  A
O583        C584   1.339       .  A
C584        C585   1.399       .  A
C585        H591   1.082       .  S
O586        C587   1.341   1_565  A
C587        C588   1.400       .  A
C588        H592   1.083       .  S
C593        C598   1.380       .  A
C593        C594   1.414       .  A
C593        O599   1.333       .  A
C594        C595   1.416       .  A
C594        H605   1.082       .  S
C595        C604   1.374       .  A
C595        C596   1.380       .  A
C596        C597   1.400       .  A
C596        O602   1.319       .  A
C597        C598   1.400       .  A
C597        H606   1.083       .  S
C598        C601   1.354       .  A
O599        C600   1.337       .  A
C600        C601   1.390       .  A
C601        H607   1.083       .  S
O602        C603   1.330       .  A
C603        C604   1.398       .  A
C604        H608   1.082       .  S
C609        C614   1.381       .  A
C609        C610   1.400       .  A
C609        O615   1.317       .  A
C610        C611   1.400       .  A
C610        H621   1.082       .  S
C611        C620   1.356       .  A
C611        C612   1.380       .  A
C612        C613   1.408       .  A
C612        O618   1.325       .  A
C613        C614   1.409       .  A
C613        H622   1.082       .  S
C614        C617   1.366       .  A
O615        C616   1.328       .  A
C616        C617   1.394       .  A
C617        H623   1.082       .  S
O618        C619   1.333       .  A
C619        C620   1.390       .  A
C620        H624   1.083       .  S
C625        C630   1.386       .  A
C625        C626   1.390       .  A
C625        O631   1.309       .  A
C626        C627   1.390       .  A
C626        H637   1.083       .  S
C627        C636   1.344       .  A
C627        C628   1.383       .  A
C628        C629   1.396       .  A
C628        O634   1.315       .  A
C629        C630   1.397       .  A
C629        H638   1.083       .  S
C630        C633   1.351       .  A
O631        C632   1.321       .  A
C632        C633   1.385       .  A
C633        H639   1.083       .  S
O634        C635   1.326       .  A
C635        C636   1.384       .  A
C636        H640   1.083       .  S
C641        C646   1.379       .  A
C641        C642   1.416       .  A
C641        O647   1.335       .  A
C642        C643   1.417       .  A
C642        H653   1.082       .  S
C643        C652   1.373       .  A
C643        C644   1.381       .  A
C644        C645   1.394       .  A
C644        O650   1.316       .  A
C645        C646   1.396       .  A
C645        H654   1.082       .  S
C646        C649   1.347       .  A
O647        C648   1.339       .  A
C648        C649   1.390       .  A
C649        H655   1.081       .  S
O650        C651   1.327       .  A
C651        C652   1.399       .  A
C652        H656   1.082       .  S
C657        C662   1.379       .  A
C657        C658   1.417       .  A
C657        O663   1.331       .  A
C658        C659   1.416       .  A
C658        H669   1.082       .  S
C659        C668   1.380       .  A
C659        C660   1.379       .  A
C660        C661   1.396       .  A
C660        O666   1.311       .  A
C661        C662   1.394       .  A
C661        H670   1.083       .  S
C662        C665   1.352       .  A
O663        C664   1.338       .  A
C664        C665   1.389       .  A
C665        H671   1.083       .  S
O666        C667   1.328       .  A
C667        C668   1.400       .  A
C668        H672   1.082       .  S
C673        C678   1.381       .  A
C673        C674   1.399       .  A
C673        O679   1.317       .  A
C674        C675   1.399       .  A
C674        H685   1.082       .  S
C675        C684   1.356       .  A
C675        C676   1.381       .  A
C676        C677   1.409       .  A
C676        O682   1.325       .  A
C677        C678   1.408       .  A
C677        H686   1.082       .  S
C678        C681   1.367       .  A
O679        C680   1.329       .  A
C680        C681   1.395       .  A
C681        H687   1.083       .  S
O682        C683   1.333       .  A
C683        C684   1.388       .  A
C684        H688   1.083       .  S
C689        C694   1.380       .  A
C689        C690   1.412       .  A
C689        O695   1.330       .  A
C690        C691   1.413       .  A
C690        H701   1.082       .  S
C691        C700   1.371       .  A
C691        C692   1.380       .  A
C692        C693   1.401       .  A
C692        O698   1.319       .  A
C693        C694   1.402       .  A
C693        H702   1.082       .  S
C694        C697   1.357       .  A
O695        C696   1.336       .  A
C696        C697   1.392       .  A
C697        H703   1.083       .  S
O698        C699   1.330       .  A
C699        C700   1.398       .  A
C700        H704   1.082       .  S
C705        C710   1.386       .  A
C705        C706   1.399       .  A
C705        O711   1.310       .  A
C706        C707   1.395       .  A
C706        H717   1.083       .  S
C707        C716   1.357       .  A
C707        C708   1.381       .  A
C708        C709   1.393       .  A
C708        O714   1.309       .  A
C709        C710   1.394       .  A
C709        H718   1.083       .  S
C710        C713   1.355       .  A
O711        C712   1.326       .  A
C712        C713   1.384       .  A
C713        H719   1.083       .  S
O714        C715   1.324       .  A
C715        C716   1.386       .  A
C716        H720   1.083       .  S
C721        C726   1.375       .  A
C721        C722   1.417       .  A
C721        O727   1.329       .  A
C722        C723   1.415       .  A
C722        H733   1.082       .  S
C723        C732   1.378       .  A
C723        C724   1.377       .  A
C724        C725   1.412       .  A
C724        O730   1.325       .  A
C725        C726   1.411       .  A
C725        H734   1.082       .  S
C726        C729   1.372       .  A
O727        C728   1.341       .  A
C728        C729   1.400       .  A
C729        H735   1.083       .  S
O730        C731   1.338       .  A
C731        C732   1.400       .  A
C732        H736   1.082       .  S
C737        C742   1.381   1_655  A
C737        C738   1.400       .  A
C737        O743   1.322       .  A
C738        C739   1.403       .  A
C738        H749   1.082       .  S
C739        C748   1.353       .  A
C739        C740   1.381       .  A
C740        C741   1.404   1_655  A
C740        O746   1.326       .  A
C741        C742   1.406       .  A
C741        H750   1.082       .  S
C742        C745   1.357       .  A
O743        C744   1.329   1_655  A
C744        C745   1.394       .  A
C745        H751   1.083       .  S
O746        C747   1.332       .  A
C747        C748   1.393       .  A
C748        H752   1.083       .  S
C753        C758   1.381       .  A
C753        C754   1.401   1_655  A
C753        O759   1.322       .  A
C754        C755   1.404   1_556  A
C754        H765   1.083       .  S
C755        C764   1.353       .  A
C755        C756   1.381       .  A
C756        C757   1.401   1_455  A
C756        O762   1.324       .  A
C757        C758   1.403   1_554  A
C757        H766   1.082       .  S
C758        C761   1.354       .  A
O759        C760   1.330       .  A
C760        C761   1.391       .  A
C761        H767   1.083       .  S
O762        C763   1.330       .  A
C763        C764   1.395       .  A
C764        H768   1.083       .  S
C769        C774   1.377       .  A
C769        C770   1.410       .  A
C769        O775   1.325       .  A
C770        C771   1.411       .  A
C770        H781   1.082       .  S
C771        C780   1.370       .  A
C771        C772   1.377       .  A
C772        C773   1.412       .  A
C772        O778   1.327       .  A
C773        C774   1.411       .  A
C773        H782   1.082   1_655  S
C774        C777   1.370       .  A
O775        C776   1.336       .  A
C776        C777   1.399       .  A
C777        H783   1.083       .  S
O778        C779   1.338       .  A
C779        C780   1.400       .  A
C780        H784   1.083       .  S
C785        C790   1.380       .  A
C785        C786   1.408       .  A
C785        O791   1.330       .  A
C786        C787   1.411       .  A
C786        H797   1.082       .  S
C787        C796   1.361       .  A
C787        C788   1.381       .  A
C788        C789   1.400       .  A
C788        O794   1.323       .  A
C789        C790   1.403       .  A
C789        H798   1.082       .  S
C790        C793   1.352       .  A
O791        C792   1.334       .  A
C792        C793   1.395       .  A
C793        H799   1.083       .  S
O794        C795   1.329       .  A
C795        C796   1.396       .  A
C796        H800   1.083       .  S
C801        C806   1.380       .  A
C801        C802   1.397       .  A
C801        O807   1.311       .  A
C802        C803   1.395       .  A
C802        H813   1.083       .  S
C803        C812   1.354       .  A
C803        C804   1.380       .  A
C804        C805   1.409       .  A
C804        O810   1.322       .  A
C805        C806   1.408       .  A
C805        H814   1.082       .  S
C806        C809   1.371       .  A
O807        C808   1.328       .  A
C808        C809   1.394       .  A
C809        H815   1.082       .  S
O810        C811   1.333       .  A
C811        C812   1.389       .  A
C812        H816   1.083       .  S
C817        C822   1.380       .  A
C817        C818   1.406       .  A
C817        O823   1.327       .  A
C818        C819   1.409   1_556  A
C818        H829   1.082       .  S
C819        C828   1.360       .  A
C819        C820   1.381       .  A
C820        C821   1.402       .  A
C820        O826   1.324       .  A
C821        C822   1.404   1_554  A
C821        H830   1.082       .  S
C822        C825   1.355       .  A
O823        C824   1.334       .  A
C824        C825   1.393       .  A
C825        H831   1.083       .  S
O826        C827   1.331       .  A
C827        C828   1.397       .  A
C828        H832   1.083       .  S
C833        C838   1.385       .  A
C833        C834   1.397       .  A
C833        O839   1.306       .  A
C834        C835   1.393       .  A
C834        H845   1.083       .  S
C835        C844   1.356       .  A
C835        C836   1.381       .  A
C836        C837   1.389       .  A
C836        O842   1.302       .  A
C837        C838   1.388       .  A
C837        H846   1.083       .  S
C838        C841   1.348       .  A
O839        C840   1.324       .  A
C840        C841   1.382       .  A
C841        H847   1.083       .  S
O842        C843   1.323       .  A
C843        C844   1.386       .  A
C844        H848   1.083       .  S
C849        C854   1.380       .  A
C849        C850   1.401       .  A
C849        O855   1.315       .  A
C850        C851   1.399       .  A
C850        H861   1.082       .  S
C851        C860   1.360       .  A
C851        C852   1.379       .  A
C852        C853   1.411       .  A
C852        O858   1.323       .  A
C853        C854   1.410       .  A
C853        H862   1.082       .  S
C854        C857   1.372       .  A
O855        C856   1.329       .  A
C856        C857   1.395       .  A
C857        H863   1.082       .  S
O858        C859   1.334       .  A
C859        C860   1.390       .  A
C860        H864   1.083       .  S
C865        C870   1.378       .  A
C865        C866   1.411       .  A
C865        O871   1.330       .  A
C866        C867   1.412       .  A
C866        H877   1.082       .  S
C867        C876   1.367       .  A
C867        C868   1.378       .  A
C868        C869   1.410       .  A
C868        O874   1.330       .  A
C869        C870   1.412       .  A
C869        H878   1.082       .  S
C870        C873   1.366       .  A
O871        C872   1.337       .  A
C872        C873   1.399       .  A
C873        H879   1.083       .  S
O874        C875   1.337       .  A
C875        C876   1.399       .  A
C876        H880   1.083       .  S
C881        C886   1.378       .  A
C881        C882   1.418       .  A
C881        O887   1.332       .  A
C882        C883   1.418       .  A
C882        H893   1.082       .  S
C883        C892   1.380       .  A
C883        C884   1.379       .  A
C884        C885   1.398       .  A
C884        O890   1.315       .  A
C885        C886   1.398       .  A
C885        H894   1.083       .  S
C886        C889   1.355       .  A
O887        C888   1.339       .  A
C888        C889   1.391       .  A
C889        H895   1.083       .  S
O890        C891   1.329       .  A
C891        C892   1.401       .  A
C892        H896   1.082       .  S
C897        C902   1.380   1_455  A
C897        C898   1.404       .  A
C897        O903   1.323       .  A
C898        C899   1.406       .  A
C898        H909   1.082       .  S
C899        C908   1.358       .  A
C899        C900   1.380       .  A
C900        C901   1.400   1_455  A
C900        O906   1.321       .  A
C901        C902   1.402       .  A
C901        H910   1.082       .  S
C902        C905   1.355       .  A
O903        C904   1.332   1_455  A
C904        C905   1.391       .  A
C905        H911   1.083       .  S
O906        C907   1.330       .  A
C907        C908   1.395       .  A
C908        H912   1.083   1_545  S
C913        C918   1.380   1_655  A
C913        C914   1.409       .  A
C913        O919   1.327       .  A
C914        C915   1.409   1_655  A
C914        H925   1.082       .  S
C915        C924   1.367       .  A
C915        C916   1.380       .  A
C916        C917   1.401       .  A
C916        O922   1.319       .  A
C917        C918   1.402       .  A
C917        H926   1.083       .  S
C918        C921   1.355   1_455  A
O919        C920   1.333       .  A
C920        C921   1.392       .  A
C921        H927   1.082   1_655  S
O922        C923   1.331       .  A
C923        C924   1.394       .  A
C924        H928   1.082       .  S
C929        C934   1.381       .  A
C929        C930   1.395       .  A
C929        O935   1.315       .  A
C930        C931   1.400       .  A
C930        H941   1.083       .  S
C931        C940   1.354       .  A
C931        C932   1.389       .  A
C932        C933   1.392       .  A
C932        O938   1.310       .  A
C933        C934   1.389       .  A
C933        H942   1.083       .  S
C934        C937   1.347       .  A
O935        C936   1.327       .  A
C936        C937   1.383       .  A
C937        H943   1.083       .  S
O938        C939   1.322       .  A
C939        C940   1.385       .  A
C940        H944   1.083       .  S
C945        C950   1.378       .  A
C945        C946   1.418       .  A
C945        O951   1.330       .  A
C946        C947   1.417       .  A
C946        H957   1.082       .  S
C947        C956   1.382       .  A
C947        C948   1.379       .  A
C948        C949   1.400       .  A
C948        O954   1.314       .  A
C949        C950   1.398       .  A
C949        H958   1.082       .  S
C950        C953   1.358       .  A
O951        C952   1.339       .  A
C952        C953   1.391       .  A
C953        H959   1.083       .  S
O954        C955   1.330       .  A
C955        C956   1.401       .  A
C956        H960   1.082       .  S
C961        C966   1.379   1_455  A
C961        C962   1.403   1_556  A
C961        O967   1.313   1_545  A
C962        C963   1.399   1_455  A
C962        H973   1.082   1_545  S
C963        C972   1.364       .  A
C963        C964   1.379       .  A
C964        C965   1.414   1_554  A
C964        O970   1.324       .  A
C965        C966   1.411       .  A
C965        H974   1.082       .  S
C966        C969   1.378       .  A
O967        C968   1.331       .  A
C968        C969   1.396   1_465  A
C969        H975   1.082       .  S
O970        C971   1.337       .  A
C971        C972   1.390       .  A
C972        H976   1.082   1_655  S
C977        C982   1.378   1_565  A
C977        C978   1.410   1_655  A
C977        O983   1.329   1_565  A
C978        C979   1.412       .  A
C978        H989   1.082       .  S
C979        C988   1.366       .  A
C979        C980   1.378   1_455  A
C980        C981   1.412   1_565  A
C980        O986   1.332       .  A
C981        C982   1.414       .  A
C981        H990   1.082       .  S
C982        C985   1.370       .  A
O983        C984   1.337       .  A
C984        C985   1.401       .  A
C985        H991   1.083       .  S
O986        C987   1.337   1_655  A
C987        C988   1.399       .  A
C988        H992   1.083       .  S
C993        C998   1.380       .  A
C993        C994   1.410       .  A
C993        O999   1.325       .  A
C994        C995   1.409   1_455  A
C994       H1005   1.082       .  S
C995       C1004   1.370       .  A
C995        C996   1.381       .  A
C996        C997   1.397   1_655  A
C996       O1002   1.313       .  A
C997        C998   1.396       .  A
C997       H1006   1.082       .  S
C998       C1001   1.354       .  A
O999       C1000   1.335       .  A
C1000      C1001   1.389       .  A
C1001      H1007   1.083       .  S
O1002      C1003   1.327       .  A
C1003      C1004   1.395       .  A
C1004      H1008   1.082       .  S
C1009      C1014   1.378       .  A
C1009      C1010   1.402       .  A
C1009      O1015   1.318       .  A
C1010      C1011   1.401       .  A
C1010      H1021   1.082       .  S
C1011      C1020   1.358       .  A
C1011      C1012   1.377       .  A
C1012      C1013   1.423       .  A
C1012      O1018   1.338       .  A
C1013      C1014   1.423       .  A
C1013      H1022   1.082       .  S
C1014      C1017   1.386       .  A
O1015      C1016   1.333       .  A
C1016      C1017   1.404       .  A
C1017      H1023   1.082       .  S
O1018      C1019   1.343       .  A
C1019      C1020   1.394       .  A
C1020      H1024   1.083       .  S
C1025      C1030   1.379   1_565  A
C1025      C1026   1.414       .  A
C1025      O1031   1.324       .  A
C1026      C1027   1.411   1_565  A
C1026      H1037   1.082       .  S
C1027      C1036   1.379       .  A
C1027      C1028   1.379       .  A
C1028      C1029   1.404       .  A
C1028      O1034   1.314       .  A
C1029      C1030   1.400       .  A
C1029      H1038   1.082       .  S
C1030      C1033   1.365       .  A
O1031      C1032   1.337       .  A
C1032      C1033   1.391   1_565  A
C1033      H1039   1.083       .  S
O1034      C1035   1.332       .  A
C1035      C1036   1.397       .  A
C1036      H1040   1.082       .  S
C1041      C1046   1.380       .  A
C1041      C1042   1.408       .  A
C1041      O1047   1.326       .  A
C1042      C1043   1.408       .  A
C1042      H1053   1.082       .  S
C1043      C1052   1.366       .  A
C1043      C1044   1.381       .  A
C1044      C1045   1.398       .  A
C1044      O1050   1.316       .  A
C1045      C1046   1.398       .  A
C1045      H1054   1.083       .  S
C1046      C1049   1.353       .  A
O1047      C1048   1.333   1_545  A
C1048      C1049   1.391   1_565  A
C1049      H1055   1.083       .  S
O1050      C1051   1.328       .  A
C1051      C1052   1.395       .  A
C1052      H1056   1.083       .  S
C1057      C1062   1.387       .  A
C1057      C1058   1.396   1_565  A
C1057      O1063   1.308       .  A
C1058      C1059   1.392   1_545  A
C1058      H1069   1.083       .  S
C1059      C1068   1.355   1_565  A
C1059      C1060   1.383       .  A
C1060      C1061   1.394       .  A
C1060      O1066   1.310       .  A
C1061      C1062   1.394       .  A
C1061      H1070   1.083       .  S
C1062      C1065   1.356       .  A
O1063      C1064   1.323       .  A
C1064      C1065   1.383       .  A
C1065      H1071   1.083       .  S
O1066      C1067   1.325       .  A
C1067      C1068   1.385   1_565  A
C1068      H1072   1.083       .  S
C1073      C1078   1.381       .  A
C1073      C1074   1.401       .  A
C1073      O1079   1.315       .  A
C1074      C1075   1.399       .  A
C1074      H1085   1.082       .  S
C1075      C1084   1.359       .  A
C1075      C1076   1.380       .  A
C1076      C1077   1.405       .  A
C1076      O1082   1.320       .  A
C1077      C1078   1.405       .  A
C1077      H1086   1.082       .  S
C1078      C1081   1.366       .  A
O1079      C1080   1.328       .  A
C1080      C1081   1.391       .  A
C1081      H1087   1.083       .  S
O1082      C1083   1.331       .  A
C1083      C1084   1.390       .  A
C1084      H1088   1.083       .  S
C1089      C1094   1.379       .  A
C1089      C1090   1.400       .  A
C1089      O1095   1.314       .  A
C1090      C1091   1.398       .  A
C1090      H1101   1.083       .  S
C1091      C1100   1.357       .  A
C1091      C1092   1.378       .  A
C1092      C1093   1.420       .  A
C1092      O1098   1.333       .  A
C1093      C1094   1.418       .  A
C1093      H1102   1.082       .  S
C1094      C1097   1.383       .  A
O1095      C1096   1.331       .  A
C1096      C1097   1.400       .  A
C1097      H1103   1.082       .  S
O1098      C1099   1.340       .  A
C1099      C1100   1.391       .  A
C1100      H1104   1.083       .  S
C1105      C1110   1.380       .  A
C1105      C1106   1.404   1_545  A
C1105      O1111   1.326       .  A
C1106      C1107   1.407   1_556  A
C1106      H1117   1.082       .  S
C1107      C1116   1.358       .  A
C1107      C1108   1.380   1_565  A
C1108      C1109   1.409       .  A
C1108      O1114   1.330       .  A
C1109      C1110   1.411   1_554  A
C1109      H1118   1.082       .  S
C1110      C1113   1.364       .  A
O1111      C1112   1.333       .  A
C1112      C1113   1.397       .  A
C1113      H1119   1.082       .  S
O1114      C1115   1.335   1_545  A
C1115      C1116   1.395       .  A
C1116      H1120   1.083       .  S
C1121      C1126   1.380       .  A
C1121      C1122   1.406   1_545  A
C1121      O1127   1.322       .  A
C1122      C1123   1.406       .  A
C1122      H1133   1.082       .  S
C1123      C1132   1.365       .  A
C1123      C1124   1.380   1_565  A
C1124      C1125   1.403       .  A
C1124      O1130   1.319       .  A
C1125      C1126   1.402       .  A
C1125      H1134   1.082       .  S
C1126      C1129   1.361       .  A
O1127      C1128   1.332       .  A
C1128      C1129   1.390       .  A
C1129      H1135   1.083       .  S
O1130      C1131   1.331   1_545  A
C1131      C1132   1.393       .  A
C1132      H1136   1.083       .  S
C1137      C1142   1.381       .  A
C1137      C1138   1.392       .  A
C1137      O1143   1.306       .  A
C1138      C1139   1.391       .  A
C1138      H1149   1.083       .  S
C1139      C1148   1.352       .  A
C1139      C1140   1.385       .  A
C1140      C1141   1.399       .  A
C1140      O1146   1.310       .  A
C1141      C1142   1.395       .  A
C1141      H1150   1.083       .  S
C1142      C1145   1.359       .  A
O1143      C1144   1.324       .  A
C1144      C1145   1.387       .  A
C1145      H1151   1.083       .  S
O1146      C1147   1.325       .  A
C1147      C1148   1.384       .  A
C1148      H1152   1.083       .  S
C1153      C1158   1.379       .  A
C1153      C1154   1.415       .  A
C1153      O1159   1.332       .  A
C1154      C1155   1.416       .  A
C1154      H1165   1.082       .  S
C1155      C1164   1.374       .  A
C1155      C1156   1.381       .  A
C1156      C1157   1.392       .  A
C1156      O1162   1.311       .  A
C1157      C1158   1.392       .  A
C1157      H1166   1.083       .  S
C1158      C1161   1.345       .  A
O1159      C1160   1.338       .  A
C1160      C1161   1.388       .  A
C1161      H1167   1.083       .  S
O1162      C1163   1.325       .  A
C1163      C1164   1.399       .  A
C1164      H1168   1.082       .  S
C1169      C1174   1.376       .  A
C1169      C1170   1.413   1_565  A
C1169      O1175   1.327   1_565  A
C1170      C1171   1.412       .  A
C1170      H1181   1.082       .  S
C1171      C1180   1.372       .  A
C1171      C1172   1.376   1_545  A
C1172      C1173   1.413       .  A
C1172      O1178   1.327       .  A
C1173      C1174   1.411       .  A
C1173      H1182   1.082       .  S
C1174      C1177   1.372       .  A
O1175      C1176   1.339   1_545  A
C1176      C1177   1.397       .  A
C1177      H1183   1.083       .  S
O1178      C1179   1.339   1_565  A
C1179      C1180   1.398       .  A
C1180      H1184   1.082       .  S
