geometry optimzed in LAMMPS
_audit_creation_date              2020-11-30 
_audit_creation_method            'lammps2cif' 
_symmetry_space_group_name_H-M    'P1' 
_symmetry_Int_Tables_number       1 
_symmetry_cell_setting            triclinic 
loop_ 
_symmetry_equiv_pos_as_xyz 
  x,y,z 
_cell_length_a                    29.38244725 
_cell_length_b                    29.107863401778502 
_cell_length_c                    55.953127611948865 
_cell_angle_alpha                 88.46266827718523 
_cell_angle_beta                  91.74560431912255 
_cell_angle_gamma                 119.94902564117375 
loop_ 
_atom_site_label 
_atom_site_type_symbol 
_atom_site_fract_x 
_atom_site_fract_y 
_atom_site_fract_z 
_atom_site_charge 
O1          O  0.64734675  0.76877872  0.55961079    -0.81400
O2          O  0.61196435  0.77342395  0.66619582    -0.66100
O3          O  0.66096703  0.81997367  0.60308862    -1.12700
C4          C  0.80028802  0.79465297  0.62899734     1.05500
O5          O  0.69023843  0.83329990  0.68017912    -0.79300
O6          O  0.76674221  0.89155747  0.64836836    -0.66900
Ni7        Ni  0.61366395  0.80033262  0.57651413     1.34900
C8          C  0.78117856  0.90659976  0.62703174     0.84200
O9          O  0.57633314  0.80910571  0.63017452    -0.79900
O10         O  0.57524556  0.82967895  0.59132813    -0.90100
C11         C  0.64150022  0.80089200  0.68330079     0.83800
O12         O  0.56385304  0.73092683  0.58733930    -0.68300
O13         O  0.79388221  0.81309368  0.64833268    -0.87600
C14         C  0.55976360  0.70338769  0.60599004     0.84600
C15         C  0.55863130  0.82476731  0.61263295     1.06200
H16         H  0.67902464  0.74674691  0.64089708     0.38000
O17         O  0.69168358  0.78398185  0.63790447    -1.10300
O18         O  0.76685032  0.87418976  0.60984231    -0.66900
Ni19       Ni  0.71455278  0.80041205  0.60573607     1.26300
O20         O  0.58821130  0.72273511  0.62478664    -0.67200
O21         O  0.76911919  0.78263125  0.61080786    -0.79500
C22         C  0.69532390  0.78183122  0.55724008     0.84000
O23         O  0.73050444  0.81080753  0.57241522    -0.66600
Ni24       Ni  0.74028639  0.82263649  0.66275210     1.27400
Ni25       Ni  0.63371159  0.79571601  0.63418092     1.26100
H26         H  0.67791817  0.85818034  0.60341068     0.38500
O27         O  0.77984617  0.63867230  0.44842949    -0.81400
O28         O  0.80323151  0.58008591  0.34410768    -0.66100
O29         O  0.83363609  0.63866702  0.40721315    -1.12700
C30         C  0.79205061  0.76232595  0.36990485     1.05500
O31         O  0.85789139  0.66102857  0.33150560    -0.79300
O32         O  0.89477607  0.75101636  0.35482890    -0.66900
Ni33       Ni  0.80768403  0.59673181  0.43539994     1.34900
C34         C  0.91368581  0.76250388  0.37588901     0.84200
O35         O  0.83655337  0.55459477  0.38514811    -0.79900
O36         O  0.83347341  0.55121144  0.42536858    -0.90100
C37         C  0.83134142  0.61171745  0.32766090     0.83800
O38         O  0.73957931  0.54920207  0.42310392    -0.68300
O39         O  0.80043063  0.74701353  0.35015996    -0.87600
C40         C  0.71889203  0.53597885  0.40237318     0.84600
C41         C  0.84138761  0.53616079  0.40542380     1.06200
H42         H  0.76020242  0.64179400  0.36665412     0.38000
O43         O  0.79783887  0.65898055  0.36904110    -1.10300
O44         O  0.88651382  0.74124923  0.39432728    -0.66900
Ni45       Ni  0.81383474  0.69074941  0.39964621     1.26300
O46         O  0.74428998  0.55560626  0.38317831    -0.67200
O47         O  0.79489754  0.74311440  0.39036003    -0.79500
C48         C  0.79978872  0.68885520  0.44858806     0.84000
O49         O  0.82674608  0.71764258  0.43131188    -0.66600
Ni50       Ni  0.82784295  0.70233102  0.34164615     1.27400
Ni51       Ni  0.81682798  0.60635119  0.37643636     1.26100
H52         H  0.87143061  0.65622255  0.40900372     0.38500
O53         O  0.35618961  0.11090748  0.43201627    -0.81400
O54         O  0.38884972  0.18265799  0.32740114    -0.66100
O55         O  0.34395138  0.16443384  0.39204680    -1.12700
C56         C  0.20103387  0.00746234  0.36286266     1.05500
O57         O  0.31048006  0.16987181  0.31694810    -0.79300
O58         O  0.23300833  0.13906523  0.34798032    -0.66900
Ni59       Ni  0.39189704  0.18144066  0.41808858     1.34900
C60         C  0.22129713  0.13751014  0.36971301     0.84200
O61         O  0.42838620  0.24404697  0.36605654    -0.79900
O62         O  0.43135005  0.25299961  0.40596747    -0.90100
C63         C  0.35783257  0.18516363  0.31183432     0.83800
O64         O  0.43974858  0.16435820  0.40410929    -0.68300
O65         O  0.20880775  0.03566645  0.34387636    -0.87600
C66         C  0.44230869  0.14670277  0.38399709     0.84600
C67         C  0.44728588  0.27137766  0.38495793     1.06200
H68         H  0.32112927  0.08221631  0.35131376     0.38000
O69         O  0.30967528  0.10679457  0.35548196    -1.10300
O70         O  0.23813710  0.11858697  0.38622485    -0.66900
Ni71       Ni  0.28786863  0.09332049  0.38786784     1.26300
O72         O  0.41284459  0.14338285  0.36616502    -0.67200
O73         O  0.23112271  0.02316856  0.38143301    -0.79500
C74         C  0.30734195  0.08079644  0.43556308     0.84000
O75         O  0.27287264  0.08067470  0.42126310    -0.66600
Ni76       Ni  0.26139289  0.10308486  0.33147048     1.27400
Ni77       Ni  0.36925058  0.17501977  0.36029170     1.26100
H78         H  0.32890577  0.18706095  0.39363744     0.38500
O79         O  0.23102509  0.87523506  0.55748807    -0.81400
O80         O  0.21931244  0.80866861  0.66622734    -0.66100
O81         O  0.18293320  0.82840751  0.60169909    -1.12700
C82         C  0.21200238  0.99094620  0.63197889     1.05500
O83         O  0.16016444  0.82793618  0.67836525    -0.79300
O84         O  0.11080551  0.86281928  0.64847742    -0.66900
Ni85       Ni  0.20729013  0.80863681  0.57473539     1.34900
C86         C  0.09647897  0.86252472  0.62683178     0.84200
O87         O  0.18579057  0.74607206  0.62835743    -0.79900
O88         O  0.18555488  0.73915632  0.58854572    -0.90100
C89         C  0.18988295  0.80845777  0.68243826     0.83800
O90         O  0.27710258  0.83432891  0.58636703    -0.68300
O91         O  0.19567276  0.96405485  0.65134634    -0.87600
C92         C  0.29932983  0.84497403  0.60688793     0.84600
C93         C  0.18049584  0.71978811  0.60971590     1.06200
H94         H  0.25377247  0.91003854  0.64158671     0.38000
O95         O  0.21666028  0.88737577  0.63826150    -1.10300
O96         O  0.12867167  0.87890163  0.60978889    -0.66900
Ni97       Ni  0.20189132  0.90111829  0.60627210     1.26300
O98         O  0.27538690  0.84171940  0.62613327    -0.67200
O99         O  0.21974472  0.97282384  0.61288604    -0.79500
C100        C  0.21416167  0.90797900  0.55628068     0.84000
O101        O  0.19057924  0.91373784  0.57356129    -0.66600
Ni102      Ni  0.17905350  0.89535018  0.66347451     1.27400
Ni103      Ni  0.20237012  0.81707302  0.63345353     1.26100
H104        H  0.14509658  0.80732587  0.60058993     0.38500
O105        O  0.13478611  0.34583978  0.55887023    -0.81400
O106        O  0.19050523  0.39104872  0.66677500    -0.66100
O107        O  0.17536352  0.33553245  0.60377108    -1.12700
C108        C  0.01040262  0.20457794  0.63157361     1.05500
O109        O  0.16947813  0.31108762  0.68008173    -0.79300
O110        O  0.13783139  0.22932679  0.65077981    -0.66900
Ni111      Ni  0.20171048  0.37957264  0.57623142     1.34900
C112        C  0.13758166  0.21542769  0.62945877     0.84200
O113        O  0.25672410  0.41995219  0.63002978    -0.79900
O114        O  0.27119617  0.41803434  0.59098725    -0.90100
C115        C  0.18698609  0.35996017  0.68395227     0.83800
O116        O  0.18684506  0.43262676  0.58571439    -0.68300
O117        O  0.03633182  0.21223760  0.65124860    -0.87600
C118        C  0.16949079  0.44195240  0.60438667     0.84600
C119        C  0.28701963  0.43559858  0.61214722     1.06200
H120        H  0.09233392  0.32708222  0.64123376     0.38000
O121        O  0.11410653  0.31150061  0.63869291    -1.10300
O122        O  0.11968760  0.23059391  0.61197422    -0.66900
Ni123      Ni  0.10168360  0.28502192  0.60695101     1.26300
O124        O  0.16252907  0.41600203  0.62404345    -0.67200
O125        O  0.02929334  0.23322579  0.61272927    -0.79500
C126        C  0.09813280  0.29759984  0.55738528     0.84000
O127        O  0.09047628  0.26424607  0.57407404    -0.66600
Ni128      Ni  0.10368192  0.26344746  0.66441374     1.27400
Ni129      Ni  0.18499216  0.36626284  0.63459097     1.26100
H130        H  0.19441687  0.31642492  0.60453411     0.38500
O131        O  0.87350243  0.20251403  0.44167397    -0.81400
O132        O  0.78509964  0.17448275  0.33709600    -0.66100
O133        O  0.81468201  0.14337805  0.40115335    -1.12700
C134        C  0.97261033  0.17318120  0.36679546     1.05500
O135        O  0.80560287  0.11677400  0.32405210    -0.79300
O136        O  0.84710477  0.07034715  0.35173043    -0.66900
Ni137      Ni  0.80273514  0.17314424  0.42844886     1.34900
C138        C  0.84565966  0.05514688  0.37328953     0.84200
O139        O  0.72800097  0.14304967  0.37776181    -0.79900
O140        O  0.73097276  0.14607821  0.41801609    -0.90100
C141        C  0.78843557  0.14853421  0.31994273     0.83800
O142        O  0.82167034  0.24107483  0.41512107    -0.68300
O143        O  0.94528637  0.15826011  0.34739962    -0.87600
C144        C  0.82887974  0.26020422  0.39402174     0.84600
C145        C  0.70648974  0.13831169  0.39790921     1.06200
H146        H  0.88913435  0.21201722  0.35982751     0.38000
O147        O  0.86745209  0.17449999  0.36311473    -1.10300
O148        O  0.86094107  0.08674012  0.39078583    -0.66900
Ni149      Ni  0.88512397  0.16096487  0.39468630     1.26300
O150        O  0.82360133  0.23322730  0.37557011    -0.67200
O151        O  0.95485203  0.17795493  0.38656036    -0.79500
C152        C  0.90213556  0.18109663  0.44358214     0.84000
O153        O  0.90142877  0.15116696  0.42729118    -0.66600
Ni154      Ni  0.87493761  0.13850681  0.33691933     1.27400
Ni155      Ni  0.79786415  0.15936055  0.36975799     1.26100
H156        H  0.79359128  0.10543336  0.40335812     0.38500
O157        O  0.69050444  0.84273272  0.82695835    -0.81400
O158        O  0.71999649  0.79828474  0.93341283    -0.66100
O159        O  0.68362509  0.78063745  0.86697319    -1.12700
C160        C  0.54713868  0.81189965  0.89118830     1.05500
O161        O  0.63711503  0.74377178  0.94271039    -0.79300
O162        O  0.55513552  0.70885361  0.91175747    -0.66900
Ni163      Ni  0.73418955  0.81970780  0.84340234     1.34900
C164        C  0.55074625  0.69077253  0.89089626     0.84200
O165        O  0.76121068  0.77706738  0.89631784    -0.79900
O166        O  0.78265793  0.80038709  0.85786498    -0.90100
C167        C  0.68610396  0.76424806  0.94736271     0.83800
O168        O  0.76813948  0.88613270  0.85887656    -0.68300
O169        O  0.55858149  0.80409480  0.91260100    -0.87600
C170        C  0.77542072  0.89953557  0.88061188     0.84600
C171        C  0.79038438  0.78501651  0.87843715     1.06200
H172        H  0.66435352  0.84494400  0.90398029     0.38000
O173        O  0.64915741  0.80722940  0.90186139    -1.10300
O174        O  0.57841974  0.71878751  0.87347521    -0.66900
Ni175      Ni  0.62628856  0.79370347  0.86923533     1.26300
O176        O  0.75446517  0.86660124  0.89773067    -0.67200
O177        O  0.56946341  0.80767946  0.87279389    -0.79500
C178        C  0.64241037  0.81493517  0.82087224     0.84000
O179        O  0.60894665  0.78312898  0.83567760    -0.66600
Ni180      Ni  0.59978200  0.77517304  0.92657282     1.27400
Ni181      Ni  0.70485939  0.79168135  0.89986673     1.26100
H182        H  0.67001008  0.74354725  0.86371228     0.38500
O183        O  0.84819262  0.65679711  0.18627642    -0.81400
O184        O  0.83115871  0.72067132  0.08144794    -0.66100
O185        O  0.79660028  0.66104374  0.14454530    -1.12700
C186        C  0.83483204  0.53590396  0.11160514     1.05500
O187        O  0.77354197  0.64171833  0.06787621    -0.79300
O188        O  0.73173000  0.54941120  0.09240613    -0.66900
Ni189      Ni  0.82504233  0.70292605  0.17232075     1.34900
C190        C  0.71295537  0.53628411  0.11319359     0.84200
O191        O  0.80245024  0.74943092  0.12033994    -0.79900
O192        O  0.80447569  0.75270936  0.16052744    -0.90100
C193        C  0.79920649  0.69184836  0.06518385     0.83800
O194        O  0.89419161  0.74676280  0.16128031    -0.68300
O195        O  0.82504028  0.55121060  0.09146775    -0.87600
C196        C  0.91584990  0.75847563  0.14107428     0.84600
C197        C  0.79943043  0.76931980  0.13979794     1.06200
H198        H  0.86831076  0.65343725  0.10684223     0.38000
O199        O  0.83085368  0.63849018  0.10831034    -1.10300
O200        O  0.73990305  0.55725027  0.13202832    -0.66900
Ni201      Ni  0.81265236  0.60601491  0.13920847     1.26300
O202        O  0.89036556  0.74032390  0.12149043    -0.67200
O203        O  0.83026422  0.55255739  0.13187577    -0.79500
C204        C  0.81863572  0.60726451  0.18917372     0.84000
O205        O  0.79559948  0.57801633  0.17131322    -0.66600
Ni206      Ni  0.79999837  0.59743323  0.08068774     1.27400
Ni207      Ni  0.81654313  0.69400987  0.11372315     1.26100
H208        H  0.75892709  0.64539504  0.14540555     0.38500
O209        O  0.31685897  0.15889698  0.17216086    -0.81400
O210        O  0.26216960  0.07758943  0.06615108    -0.66100
O211        O  0.31268049  0.10401039  0.13091390    -1.12700
C212        C  0.44238810  0.26864723  0.09723560     1.05500
O213        O  0.34245067  0.10271578  0.05441032    -0.79300
O214        O  0.43166404  0.15511290  0.08115884    -0.66900
Ni215      Ni  0.26699075  0.09434576  0.15631500     1.34900
C216        C  0.44044371  0.14570423  0.10258063     0.84200
O217        O  0.23144612  0.01968110  0.10591874    -0.79900
O218        O  0.21240383  0.02795456  0.14351519    -0.90100
C219        C  0.29279265  0.07322424  0.05211223     0.83800
O220        O  0.23614477  0.13190415  0.14150058    -0.68300
O221        O  0.42719876  0.24616206  0.07690200    -0.87600
C222        C  0.22018472  0.13171439  0.12017447     0.84600
C223        C  0.20289541  0.00181163  0.12424311     1.06200
H224        H  0.32308585  0.18349902  0.09051825     0.38000
O225        O  0.33874582  0.16141948  0.09314207    -1.10300
O226        O  0.41516573  0.14765951  0.12009767    -0.66900
Ni227      Ni  0.36845847  0.17443477  0.12470702     1.26300
O228        O  0.23415203  0.11440669  0.10273650    -0.67200
O229        O  0.42361694  0.24498330  0.11714096    -0.79500
C230        C  0.36625895  0.17875864  0.17462539     0.84000
O231        O  0.39459531  0.18397861  0.15701879    -0.66600
Ni232      Ni  0.38319859  0.17404027  0.06675966     1.27400
Ni233      Ni  0.28459063  0.09040953  0.09898147     1.26100
H234        H  0.32715754  0.08111517  0.13437079     0.38500
O235        O  0.15011202  0.79351194  0.82327186    -0.81400
O236        O  0.15483056  0.86881563  0.92562393    -0.66100
O237        O  0.19660393  0.85004295  0.86436597    -1.12700
C238        C  0.16085249  0.68451659  0.89863232     1.05500
O239        O  0.20699012  0.84387769  0.94363321    -0.79300
O240        O  0.25584105  0.80053542  0.92080748    -0.66900
Ni241      Ni  0.16671688  0.86103910  0.83571562     1.34900
C242        C  0.27948203  0.81204488  0.90104029     0.84200
O243        O  0.18815700  0.92972580  0.88650945    -0.79900
O244        O  0.18153217  0.92956216  0.84625373    -0.90100
C245        C  0.18274844  0.86995459  0.94359811     0.83800
O246        O  0.09601669  0.82958907  0.84569450    -0.68300
O247        O  0.16422560  0.70589547  0.91874693    -0.87600
C248        C  0.07447377  0.82174507  0.86582494     0.84600
C249        C  0.18851961  0.95180290  0.86647840     1.06200
H250        H  0.12183621  0.76574711  0.90047500     0.38000
O251        O  0.15942532  0.78925195  0.90053132    -1.10300
O252        O  0.25637362  0.80819952  0.88098542    -0.66900
Ni253      Ni  0.18418569  0.77999857  0.87073660     1.26300
O254        O  0.10033467  0.83221135  0.88550950    -0.67200
O255        O  0.16961270  0.70924179  0.87853428    -0.79500
C256        C  0.18492411  0.78051529  0.82099926     0.84000
O257        O  0.20780397  0.77484247  0.83954329    -0.66600
Ni258      Ni  0.18504997  0.77548373  0.92979366     1.27400
Ni259      Ni  0.17355724  0.85969985  0.89431628     1.26100
H260        H  0.23403764  0.87411459  0.86366760     0.38500
O261        O  0.17348849  0.28524683  0.82652492    -0.81400
O262        O  0.09496773  0.23980730  0.93091069    -0.66100
O263        O  0.12203377  0.29184360  0.86643790    -1.12700
C264        C  0.28799506  0.41662453  0.89922786     1.05500
O265        O  0.12516855  0.32033200  0.94486679    -0.79300
O266        O  0.16932473  0.40516192  0.91510972    -0.66900
Ni267      Ni  0.10541143  0.24482668  0.84044358     1.34900
C268        C  0.16605455  0.41736825  0.89342198     0.84200
O269        O  0.03624044  0.21151369  0.89143932    -0.79900
O270        O  0.03561213  0.19976035  0.85187046    -0.90100
C271        C  0.09562719  0.27026911  0.94684720     0.83800
O272        O  0.12924472  0.20079472  0.85492075    -0.68300
O273        O  0.26334200  0.40674739  0.91883035    -0.87600
C274        C  0.13650238  0.19053656  0.87638154     0.84600
C275        C  0.01330029  0.18854286  0.87208638     1.06200
H276        H  0.19918337  0.29754240  0.90751768     0.38000
O277        O  0.17913809  0.31517967  0.90423837    -1.10300
O278        O  0.17532789  0.39653445  0.87597664    -0.66900
Ni279      Ni  0.19432052  0.34317243  0.87215909     1.26300
O280        O  0.12870832  0.21148674  0.89427635    -0.67200
O281        O  0.26642542  0.39395140  0.87950869    -0.79500
C282        C  0.19820432  0.33481212  0.82251697     0.84000
O283        O  0.20606108  0.36694606  0.83914932    -0.66600
Ni284      Ni  0.19343800  0.36163278  0.93025472     1.27400
Ni285      Ni  0.10755576  0.26345925  0.89832354     1.26100
H286        H  0.10238501  0.30999841  0.86353784     0.38500
O287        O  0.81739894  0.11450455  0.17795351    -0.81400
O288        O  0.90198678  0.16329812  0.07289856    -0.66100
O289        O  0.87130379  0.17614840  0.13783184    -1.12700
C290        C  0.70883568  0.14366785  0.10190157     1.05500
O291        O  0.87714585  0.22077421  0.06162203    -0.79300
O292        O  0.82597409  0.25283468  0.08970549    -0.66900
Ni293      Ni  0.88488110  0.14033173  0.16359641     1.34900
C294        C  0.83051475  0.26491144  0.11161879     0.84200
O295        O  0.95774874  0.18355476  0.11333213    -0.79900
O296        O  0.95427638  0.16245917  0.15236938    -0.90100
C297        C  0.90457953  0.19881845  0.05841077     0.83800
O298        O  0.85680303  0.07438473  0.14809569    -0.68300
O299        O  0.73466090  0.15944673  0.08256395    -0.87600
C300        C  0.85192517  0.06062386  0.12643199     0.84600
C301        C  0.97827246  0.17723393  0.13257531     1.06200
H302        H  0.79637041  0.11398012  0.09524140     0.38000
O303        O  0.81716059  0.15108993  0.09915075    -1.10300
O304        O  0.82255359  0.23220700  0.12854928    -0.66900
Ni305      Ni  0.79992487  0.15848577  0.13103222     1.26300
O306        O  0.86377086  0.09293571  0.10881791    -0.67200
O307        O  0.72909027  0.14145625  0.12222676    -0.79500
C308        C  0.79188610  0.13845061  0.18094606     0.84000
O309        O  0.78563387  0.16483638  0.16397169    -0.66600
Ni310      Ni  0.80632171  0.18872441  0.07340051     1.27400
Ni311      Ni  0.88757003  0.16767500  0.10580605     1.26100
H312        H  0.89185644  0.21340847  0.14135877     0.38500
C313        C  0.05940302  0.24786905  0.96743971    -0.05800
C314        C  0.03345400  0.19321468  0.97289645    -0.05700
C315        C  0.99897942  0.17241280  0.99215151    -0.23900
C316        C  0.98900305  0.20567713  0.00614695     0.18400
C317        C  0.01413072  0.26047430  0.00050433     0.15600
C318        C  0.04945526  0.28119438  0.98149951    -0.18900
C319        C  0.00311163  0.29374885  0.01379096    -0.20700
C320        C  0.96743669  0.27309831  0.03241655    -0.13300
C321        C  0.94275835  0.21892314  0.03862128     0.03400
C322        C  0.95403926  0.18527412  0.02547387    -0.25400
H323        H  0.04004436  0.16650394  0.96233994     0.08500
H324        H  0.97984189  0.13022887  0.99598353     0.12100
H325        H  0.06848146  0.32328847  0.97739544     0.12000
H326        H  0.02176759  0.33578777  0.00964685     0.11800
H327        H  0.95951960  0.29983831  0.04224157     0.12300
H328        H  0.93473739  0.14331968  0.02988586     0.14300
C329        C  0.15374379  0.46004739  0.88833962    -0.05800
C330        C  0.16409754  0.48553825  0.86580134    -0.05700
C331        C  0.16220028  0.53229567  0.86239384    -0.23900
C332        C  0.15026447  0.55436534  0.88151077     0.18400
C333        C  0.13614205  0.52680925  0.90368134     0.15600
C334        C  0.13728505  0.47960672  0.90684229    -0.18900
C335        C  0.12428789  0.54851297  0.92286736    -0.20700
C336        C  0.13005476  0.59885422  0.92070678    -0.13300
C337        C  0.14732228  0.62829800  0.89924199     0.03400
C338        C  0.15518739  0.60481107  0.87932210    -0.25400
H339        H  0.17640907  0.47097461  0.85114322     0.08500
H340        H  0.17254660  0.55247794  0.84518205     0.12100
H341        H  0.12837584  0.45986717  0.92418895     0.12000
H342        H  0.11280697  0.52758879  0.93988547     0.11800
H343        H  0.12262563  0.61543430  0.93621519     0.12300
H344        H  0.16808896  0.62685737  0.86262137     0.14300
C345        C  0.19423001  0.00491879  0.86670486    -0.05800
C346        C  0.21020174  0.03739821  0.84612530    -0.05700
C347        C  0.20709853  0.08364875  0.84494221    -0.23900
C348        C  0.18687876  0.09734468  0.86412849     0.18400
C349        C  0.17307222  0.06626769  0.88534122     0.15600
C350        C  0.17772802  0.02072532  0.88664420    -0.18900
C351        C  0.15207423  0.07959852  0.90437089    -0.20700
C352        C  0.14226346  0.12175723  0.90191979    -0.13300
C353        C  0.15350339  0.15115074  0.88044260     0.03400
C354        C  0.17752604  0.13986192  0.86193189    -0.25400
H355        H  0.22349613  0.02611566  0.83065845     0.08500
H356        H  0.21823243  0.10735047  0.82863683     0.12100
H357        H  0.16503352  0.99571767  0.90256088     0.12000
H358        H  0.14138479  0.05620773  0.92076810     0.11800
H359        H  0.12379866  0.12987818  0.91641466     0.12300
H360        H  0.18695535  0.16280234  0.84539722     0.14300
C361        C  0.19087140  0.90498151  0.96418344    -0.05800
C362        C  0.16322613  0.93273798  0.96578471    -0.05700
C363        C  0.17450747  0.96876289  0.98433794    -0.23900
C364        C  0.21437888  0.97852864  0.00139840     0.18400
C365        C  0.24144858  0.94989681  0.00014238     0.15600
C366        C  0.22897187  0.91295336  0.98194023    -0.18900
C367        C  0.28221884  0.96007113  0.01654605    -0.20700
C368        C  0.29779693  0.99983469  0.03339692    -0.13300
C369        C  0.27211400  0.02938187  0.03475170     0.03400
C370        C  0.22917605  0.01756824  0.01912259    -0.25400
H371        H  0.13345337  0.92725276  0.95247206     0.08500
H372        H  0.15311081  0.99009047  0.98492052     0.12100
H373        H  0.25070774  0.89198596  0.98108247     0.12000
H374        H  0.30321459  0.93834029  0.01588597     0.11800
H375        H  0.33041194  0.00777879  0.04544566     0.12300
H376        H  0.20915700  0.04023100  0.02003146     0.14300
C377        C  0.03161460  0.18420838  0.13184884    -0.05800
C378        C  0.06366358  0.19896198  0.15256150    -0.05700
C379        C  0.11030934  0.19723476  0.15330495    -0.23900
C380        C  0.12506454  0.17939807  0.13353465     0.18400
C381        C  0.09412162  0.16605306  0.11230482     0.15600
C382        C  0.04799613  0.16947693  0.11144012    -0.18900
C383        C  0.10843010  0.14687745  0.09280792    -0.20700
C384        C  0.15137105  0.13841597  0.09477660    -0.13300
C385        C  0.18107559  0.14950378  0.11619346     0.03400
C386        C  0.16862378  0.17190166  0.13518170    -0.25400
H387        H  0.05183268  0.21045503  0.16844456     0.08500
H388        H  0.13367726  0.20768478  0.16970695     0.12100
H389        H  0.02312199  0.15726870  0.09547918     0.12000
H390        H  0.08517071  0.13640715  0.07637608     0.11800
H391        H  0.15986447  0.12102426  0.07990214     0.12300
H392        H  0.19113374  0.18092805  0.15182140     0.14300
C393        C  0.65288496  0.12937518  0.10010091    -0.05800
C394        C  0.62639161  0.11475991  0.07780145    -0.05700
C395        C  0.57709854  0.11021132  0.07442062    -0.23900
C396        C  0.55342935  0.12070285  0.09321368     0.18400
C397        C  0.57827944  0.13270917  0.11606901     0.15600
C398        C  0.62767283  0.13641466  0.11945962    -0.18900
C399        C  0.55445406  0.14335825  0.13480187    -0.20700
C400        C  0.50789699  0.14457989  0.13065334    -0.13300
C401        C  0.48430381  0.13530206  0.10767394     0.03400
C402        C  0.50663193  0.12188360  0.08918753    -0.25400
H403        H  0.64467454  0.10855067  0.06264562     0.08500
H404        H  0.55843809  0.10048576  0.05684927     0.12100
H405        H  0.64778710  0.14798822  0.13668280     0.12000
H406        H  0.57274287  0.15254537  0.15245439     0.11800
H407        H  0.49171672  0.15527425  0.14523217     0.12300
H408        H  0.48877348  0.11444226  0.07143062     0.14300
C409        C  0.97323023  0.79644370  0.14101965    -0.05800
C410        C  0.00040905  0.81422391  0.16305503    -0.05700
C411        C  0.05244203  0.85486558  0.16395532    -0.23900
C412        C  0.07868770  0.87871052  0.14285108     0.18400
C413        C  0.05330389  0.85935168  0.12048577     0.15600
C414        C  0.00062271  0.81803191  0.11967028    -0.18900
C415        C  0.08041475  0.88339634  0.09943032    -0.20700
C416        C  0.13072000  0.92809639  0.10060140    -0.13300
C417        C  0.15461814  0.94943539  0.12284709     0.03400
C418        C  0.12902995  0.92325700  0.14388249    -0.25400
H419        H  0.98094587  0.79793130  0.17984502     0.08500
H420        H  0.07157161  0.86884165  0.18122576     0.12100
H421        H  0.98048591  0.80447548  0.10256193     0.12000
H422        H  0.06198681  0.86893245  0.08209250     0.11800
H423        H  0.14974984  0.94750968  0.08409108     0.12300
H424        H  0.14732898  0.93892857  0.16113686     0.14300
C425        C  0.48566050  0.32455768  0.09759621    -0.05800
C426        C  0.50066883  0.35474972  0.07627624    -0.05700
C427        C  0.54561625  0.40481780  0.07568791    -0.23900
C428        C  0.57684874  0.42547027  0.09634406     0.18400
C429        C  0.56108162  0.39665284  0.11814186     0.15600
C430        C  0.51528677  0.34661916  0.11869987    -0.18900
C431        C  0.59271613  0.41731704  0.13873655    -0.20700
C432        C  0.64083072  0.46462338  0.13744891    -0.13300
C433        C  0.65813250  0.49217098  0.11554879     0.03400
C434        C  0.62488910  0.47315706  0.09524032    -0.25400
H435        H  0.47838540  0.33905562  0.05981685     0.08500
H436        H  0.55695192  0.42655792  0.05886316     0.12100
H437        H  0.50435583  0.32381651  0.13526819     0.12000
H438        H  0.58121964  0.39590339  0.15563558     0.11800
H439        H  0.66561737  0.47823182  0.15337888     0.12300
H440        H  0.63749884  0.49409471  0.07826763     0.14300
C441        C  0.79302655  0.81632863  0.13823797    -0.05800
C442        C  0.77375374  0.83046202  0.15769477    -0.05700
C443        C  0.77571717  0.87929792  0.15779257    -0.23900
C444        C  0.79818632  0.91516728  0.13868987     0.18400
C445        C  0.81571290  0.90050410  0.11857142     0.15600
C446        C  0.81215551  0.85073209  0.11829577    -0.18900
C447        C  0.83927124  0.93703545  0.09973288    -0.20700
C448        C  0.84829978  0.98875005  0.10150418    -0.13300
C449        C  0.83354967  0.00431678  0.12206327     0.03400
C450        C  0.80642784  0.96660038  0.14009779    -0.25400
H451        H  0.75862473  0.80438743  0.17315373     0.08500
H452        H  0.76192774  0.88998712  0.17328776     0.12100
H453        H  0.82762743  0.84038070  0.10328664     0.12000
H454        H  0.85284849  0.92636372  0.08416034     0.11800
H455        H  0.86929651  0.01723863  0.08741806     0.12300
H456        H  0.79434702  0.97812515  0.15592260     0.14300
C457        C  0.85081295  0.49545667  0.11063109    -0.05800
C458        C  0.86900227  0.48785002  0.08893222    -0.05700
C459        C  0.87467357  0.44382468  0.08579657    -0.23900
C460        C  0.86192852  0.40643281  0.10425757     0.18400
C461        C  0.84746625  0.41558314  0.12678121     0.15600
C462        C  0.84262690  0.46059912  0.12995799    -0.18900
C463        C  0.83474864  0.37776191  0.14516556    -0.20700
C464        C  0.83240018  0.32965925  0.14066765    -0.13300
C465        C  0.84295515  0.31889643  0.11774936     0.03400
C466        C  0.86012238  0.35852149  0.09998409    -0.25400
H467        H  0.87672544  0.51484995  0.07391431     0.08500
H468        H  0.88649115  0.43772089  0.06854780     0.12100
H469        H  0.82886037  0.46629219  0.14678093     0.12000
H470        H  0.82412302  0.38424125  0.16262080     0.11800
H471        H  0.81954795  0.29983155  0.15477022     0.12300
H472        H  0.86918023  0.35096558  0.08237159     0.14300
C473        C  0.34405370  0.45844573  0.89983535    -0.05800
C474        C  0.37112953  0.47290402  0.92198233    -0.05700
C475        C  0.42009437  0.51855722  0.92400375    -0.23900
C476        C  0.44283155  0.55096206  0.90394320     0.18400
C477        C  0.41792943  0.53522073  0.88124002     0.15600
C478        C  0.36883449  0.48847866  0.87924418    -0.18900
C479        C  0.44111893  0.56824936  0.86126738    -0.20700
C480        C  0.48652135  0.61784281  0.86406892    -0.13300
C481        C  0.50948221  0.63501891  0.88686925     0.03400
C482        C  0.48846718  0.60030751  0.90655195    -0.25400
H483        H  0.35339532  0.45001190  0.93804857     0.08500
H484        H  0.43900780  0.52979703  0.94148098     0.12100
H485        H  0.34842819  0.47770833  0.86206489     0.12000
H486        H  0.42288505  0.55679853  0.84367840     0.11800
H487        H  0.50199068  0.64384570  0.84861089     0.12300
H488        H  0.50611726  0.61280833  0.92420247     0.14300
C489        C  0.95898917  0.14391575  0.87305603    -0.05800
C490        C  0.92663034  0.13049604  0.85247354    -0.05700
C491        C  0.88007905  0.08202494  0.85120302    -0.23900
C492        C  0.86577984  0.04572338  0.87031286     0.18400
C493        C  0.89631702  0.05996176  0.89169297     0.15600
C494        C  0.94237562  0.10959165  0.89310934    -0.18900
C495        C  0.88215854  0.02288302  0.91058032    -0.20700
C496        C  0.84033885  0.97110188  0.90764651    -0.13300
C497        C  0.81202967  0.95591534  0.88584460     0.03400
C498        C  0.82354123  0.99419915  0.86768842    -0.25400
H499        H  0.93859933  0.15655759  0.83691922     0.08500
H500        H  0.85682163  0.07174977  0.83476951     0.12100
H501        H  0.96740314  0.11947050  0.90899595     0.12000
H502        H  0.90496343  0.03312409  0.92714316     0.11800
H503        H  0.83208464  0.94225219  0.92190710     0.12300
H504        H  0.80152239  0.98305168  0.85089629     0.14300
C505        C  0.50385453  0.82395772  0.88766522    -0.05800
C506        C  0.47967202  0.81901511  0.86503344    -0.05700
C507        C  0.43341661  0.82158604  0.86252845    -0.23900
C508        C  0.41038455  0.82886817  0.88262715     0.18400
C509        C  0.43621506  0.83718337  0.90514644     0.15600
C510        C  0.48286000  0.83520975  0.90746732    -0.18900
C511        C  0.41346365  0.84431439  0.92530570    -0.20700
C512        C  0.36376169  0.83936184  0.92356960    -0.13300
C513        C  0.33595660  0.82771283  0.90159167     0.03400
C514        C  0.36063497  0.82487112  0.88091093    -0.25400
H515        H  0.49508071  0.81066264  0.84941814     0.08500
H516        H  0.41449128  0.81559146  0.84506004     0.12100
H517        H  0.50131108  0.83978898  0.92498908     0.12000
H518        H  0.43303311  0.85130403  0.94265702     0.11800
H519        H  0.34616324  0.84251928  0.93972076     0.12300
H520        H  0.33981968  0.81603485  0.86381904     0.14300
C521        C  0.01695544  0.80171713  0.86580666    -0.05800
C522        C  0.98874281  0.78882563  0.84389692    -0.05700
C523        C  0.93688086  0.77784576  0.84257823    -0.23900
C524        C  0.91186834  0.77945298  0.86313237     0.18400
C525        C  0.93824115  0.78905644  0.88556649     0.15600
C526        C  0.99068313  0.79982093  0.88682484    -0.18900
C527        C  0.91242962  0.79028664  0.90606831    -0.20700
C528        C  0.86248983  0.78542377  0.90407622    -0.13300
C529        C  0.83757469  0.77918904  0.88155613     0.03400
C530        C  0.86187610  0.77427402  0.86131173    -0.25400
H531        H  0.00736224  0.78912349  0.82744146     0.08500
H532        H  0.91697150  0.77001140  0.82528489     0.12100
H533        H  0.01164673  0.80928195  0.90387953     0.12000
H534        H  0.93169215  0.79715868  0.92348511     0.11800
H535        H  0.84466578  0.78940403  0.91997077     0.12300
H536        H  0.84293319  0.76893983  0.84386057     0.14300
C537        C  0.70308008  0.74415110  0.96828876    -0.05800
C538        C  0.67336286  0.69020880  0.97452074    -0.05700
C539        C  0.68791855  0.66962643  0.99413797    -0.23900
C540        C  0.73184026  0.70287534  0.00828136     0.18400
C541        C  0.76215887  0.75735766  0.00240179     0.15600
C542        C  0.74809480  0.77762224  0.98208552    -0.18900
C543        C  0.80529858  0.79039030  0.01720413    -0.20700
C544        C  0.81779330  0.76962703  0.03770751    -0.13300
C545        C  0.78783698  0.71534879  0.04351317     0.03400
C546        C  0.74518088  0.68233691  0.02845920    -0.25400
H547        H  0.63896597  0.66368192  0.96398623     0.08500
H548        H  0.66435595  0.62775228  0.99843547     0.12100
H549        H  0.77109858  0.81935189  0.97739815     0.12000
H550        H  0.82896108  0.83232436  0.01308618     0.11800
H551        H  0.85083191  0.79593802  0.04897371     0.12300
H552        H  0.72136717  0.64042767  0.03266699     0.14300
C553        C  0.76845528  0.13255547  0.20477773    -0.05800
C554        C  0.74078827  0.08150431  0.21500438    -0.05700
C555        C  0.73184135  0.07439650  0.23956280    -0.23900
C556        C  0.75142873  0.11832782  0.25456171     0.18400
C557        C  0.77564872  0.16998045  0.24439783     0.15600
C558        C  0.78351447  0.17683604  0.21940204    -0.18900
C559        C  0.79523001  0.21372454  0.25968120    -0.20700
C560        C  0.79469271  0.20649905  0.28465447    -0.13300
C561        C  0.77477274  0.15548021  0.29478049     0.03400
C562        C  0.75108051  0.11146927  0.27958156    -0.25400
H563        H  0.72897906  0.04694826  0.20412737     0.08500
H564        H  0.71263286  0.03451135  0.24700959     0.12100
H565        H  0.80557222  0.21642118  0.21176653     0.12000
H566        H  0.81364082  0.25367426  0.25233430     0.11800
H567        H  0.81353029  0.24102499  0.29595083     0.12300
H568        H  0.73562736  0.07193250  0.28720136     0.14300
C569        C  0.20370474  0.37845625  0.70881551    -0.05800
C570        C  0.18896785  0.41189793  0.71970095    -0.05700
C571        C  0.19209864  0.41694933  0.74473723    -0.23900
C572        C  0.20990193  0.38850966  0.75919600     0.18400
C573        C  0.22862436  0.35826456  0.74806142     0.15600
C574        C  0.22578843  0.35386186  0.72310153    -0.18900
C575        C  0.24605412  0.32930338  0.76206852    -0.20700
C576        C  0.24064176  0.32629250  0.78679749    -0.13300
C577        C  0.21853665  0.35280294  0.79812945     0.03400
C578        C  0.20559236  0.38618553  0.78438468    -0.25400
H579        H  0.17153176  0.43097440  0.70906193     0.08500
H580        H  0.17786733  0.44067691  0.75283009     0.12100
H581        H  0.23738264  0.32806265  0.71484685     0.12000
H582        H  0.26082438  0.30622349  0.75378583     0.11800
H583        H  0.25070830  0.30034856  0.79701856     0.12300
H584        H  0.18774076  0.40612474  0.79293433     0.14300
C585        C  0.06141857  0.28180647  0.53636603    -0.05800
C586        C  0.04647475  0.31774054  0.52703094    -0.05700
C587        C  0.01147988  0.30439623  0.50754867    -0.23900
C588        C  0.99158068  0.25522330  0.49648051     0.18400
C589        C  0.00686490  0.21883737  0.50528976     0.15600
C590        C  0.04090904  0.23188655  0.52554458    -0.18900
C591        C  0.98822325  0.17048180  0.49344843    -0.20700
C592        C  0.95497351  0.15846343  0.47317100    -0.13300
C593        C  0.93857009  0.19391196  0.46466890     0.03400
C594        C  0.95704935  0.24221933  0.47659231    -0.25400
H595        H  0.06132841  0.35615539  0.53512676     0.08500
H596        H  0.00034242  0.33284317  0.50099288     0.12100
H597        H  0.05239224  0.20395909  0.53249610     0.12000
H598        H  0.99965502  0.14210767  0.49975752     0.11800
H599        H  0.94133483  0.12100304  0.46436398     0.12300
H600        H  0.94529971  0.27027075  0.47010278     0.14300
C601        C  0.18600209  0.78297037  0.70605912    -0.05800
C602        C  0.13579296  0.74575551  0.71407077    -0.05700
C603        C  0.12724438  0.73163142  0.73821362    -0.23900
C604        C  0.16866783  0.75531064  0.75494288     0.18400
C605        C  0.22020131  0.79028214  0.74703096     0.15600
C606        C  0.22873505  0.80354824  0.72245081    -0.18900
C607        C  0.26126308  0.81428669  0.76409029    -0.20700
C608        C  0.25065253  0.80666303  0.78864722    -0.13300
C609        C  0.19889620  0.77498544  0.79648749     0.03400
C610        C  0.15848790  0.74783658  0.77951989    -0.25400
H611        H  0.10241175  0.72991375  0.70174858     0.08500
H612        H  0.08759384  0.70459081  0.74397096     0.12100
H613        H  0.26739058  0.83314589  0.71646269     0.12000
H614        H  0.30104776  0.84120936  0.75847470     0.11800
H615        H  0.28220227  0.82875287  0.80142998     0.12300
H616        H  0.11838175  0.72388139  0.78546618     0.14300
C617        C  0.17019325  0.66467585  0.61313179    -0.05800
C618        C  0.17358136  0.64575064  0.63619724    -0.05700
C619        C  0.17007110  0.59632970  0.63945313    -0.23900
C620        C  0.16296629  0.56465825  0.61973256     0.18400
C621        C  0.15741718  0.58234307  0.59658488     0.15600
C622        C  0.16088060  0.63199448  0.59343523    -0.18900
C623        C  0.15038636  0.55093082  0.57681573    -0.20700
C624        C  0.15137101  0.50376011  0.57976549    -0.13300
C625        C  0.15916718  0.48675518  0.60255467     0.03400
C626        C  0.16339980  0.51669358  0.62262742    -0.25400
H627        H  0.18067553  0.66989368  0.65177685     0.08500
H628        H  0.17426155  0.58351638  0.65733976     0.12100
H629        H  0.15796352  0.64579589  0.57557197     0.12000
H630        H  0.14573029  0.56360665  0.55896729     0.11800
H631        H  0.14759794  0.48124858  0.56398633     0.12300
H632        H  0.16989252  0.50427860  0.64023146     0.14300
C633        C  0.21851572  0.04454296  0.63209821    -0.05800
C634        C  0.23340592  0.07292327  0.65357100    -0.05700
C635        C  0.22507996  0.11553993  0.65658988    -0.23900
C636        C  0.20088031  0.12992367  0.63829814     0.18400
C637        C  0.18936768  0.10421730  0.61599128     0.15600
C638        C  0.19919055  0.06220635  0.61286296    -0.18900
C639        C  0.16488623  0.11851277  0.59777735    -0.20700
C640        C  0.14937753  0.15572019  0.60202708    -0.13300
C641        C  0.15814898  0.17946539  0.62455964     0.03400
C642        C  0.18543897  0.16747633  0.64240495    -0.25400
H643        H  0.24861469  0.06001893  0.66857993     0.08500
H644        H  0.23475800  0.13517980  0.67369783     0.12100
H645        H  0.18713683  0.04018568  0.59633971     0.12000
H646        H  0.15603754  0.09956392  0.58052131     0.11800
H647        H  0.12901425  0.16466577  0.58782361     0.12300
H648        H  0.19316652  0.18601060  0.65973900     0.14300
C649        C  0.38954451  0.19557685  0.19872177    -0.05800
C650        C  0.42068861  0.17608978  0.20925628    -0.05700
C651        C  0.42864824  0.17759328  0.23415838    -0.23900
C652        C  0.40536676  0.19848173  0.24871934     0.18400
C653        C  0.37840530  0.22271383  0.23779259     0.15600
C654        C  0.37114133  0.22148914  0.21293724    -0.18900
C655        C  0.35466855  0.24337065  0.25194148    -0.20700
C656        C  0.35266263  0.23518916  0.27657583    -0.13300
C657        C  0.37504293  0.20700252  0.28757936     0.03400
C658        C  0.40423961  0.19144154  0.27379609    -0.25400
H659        H  0.43505209  0.15576750  0.19850692     0.08500
H660        H  0.44990875  0.15928489  0.24208837     0.12100
H661        H  0.34719834  0.23666427  0.20480467     0.12000
H662        H  0.33442119  0.26257633  0.24382896     0.11800
H663        H  0.33049159  0.24794081  0.28693607     0.12300
H664        H  0.42132277  0.16937427  0.28216733     0.14300
C665        C  0.22408800  0.94157428  0.53435291    -0.05800
C666        C  0.20120456  0.97386985  0.53117852    -0.05700
C667        C  0.21101730  0.00594837  0.51070029    -0.23900
C668        C  0.24451877  0.00702340  0.49309287     0.18400
C669        C  0.26829219  0.97526659  0.49620982     0.15600
C670        C  0.25750255  0.94243373  0.51660021    -0.18900
C671        C  0.30326384  0.97759040  0.47908144    -0.20700
C672        C  0.31531378  0.01172790  0.45930139    -0.13300
C673        C  0.29154065  0.04301723  0.45590128     0.03400
C674        C  0.25553415  0.04003053  0.47267911    -0.25400
H675        H  0.17552397  0.97429669  0.54454036     0.08500
H676        H  0.19278801  0.03032550  0.50875626     0.12100
H677        H  0.27595021  0.91828111  0.51881714     0.12000
H678        H  0.32202621  0.95372841  0.48119923     0.11800
H679        H  0.34327518  0.01370137  0.44654372     0.12300
H680        H  0.23773188  0.06474489  0.47027801     0.14300
C681        C  0.18370198  0.15548564  0.37550666    -0.05800
C682        C  0.16054103  0.14509553  0.39811171    -0.15300
C683        C  0.11784602  0.15268375  0.40195307    -0.23900
C684        C  0.09717049  0.17011028  0.38316862     0.18400
C685        C  0.12224182  0.18363704  0.36084496     0.15600
C686        C  0.16571664  0.17719646  0.35732325    -0.18900
C687        C  0.10139157  0.20003744  0.34183135    -0.20700
C688        C  0.05398757  0.19930548  0.34431805    -0.13300
C689        C  0.02712043  0.18333825  0.36600912     0.03400
C690        C  0.05011534  0.17102314  0.38577011    -0.25400
H691        H  0.17370507  0.12863911  0.41250163     0.08500
H692        H  0.09942198  0.14242570  0.41925122     0.12100
H693        H  0.18334506  0.18593298  0.33984365     0.12000
H694        H  0.12034108  0.21086740  0.32465198     0.11800
H695        H  0.03730908  0.20950479  0.32895027     0.12300
H696        H  0.02952712  0.15837326  0.40254019     0.14300
C697        C  0.48337153  0.13185562  0.38151980    -0.05800
C698        C  0.50372881  0.13207974  0.35908389    -0.05700
C699        C  0.54900897  0.12782292  0.35748176    -0.23900
C700        C  0.57470698  0.12355402  0.37829595     0.18400
C701        C  0.55241041  0.11984891  0.40077568     0.15600
C702        C  0.50681536  0.12345357  0.40220913    -0.18900
C703        C  0.57761476  0.11560029  0.42163967    -0.20700
C704        C  0.62634219  0.11862237  0.42044563    -0.13300
C705        C  0.65085563  0.12567736  0.39834392     0.03400
C706        C  0.62363828  0.12590324  0.37718165    -0.25400
H707        H  0.48632054  0.13833295  0.34287847     0.08500
H708        H  0.56519979  0.13023631  0.34005086     0.12100
H709        H  0.49112252  0.12243765  0.41963463     0.12000
H710        H  0.56071354  0.11219735  0.43899780     0.11800
H711        H  0.64575866  0.11752817  0.43703819     0.12300
H712        H  0.64173201  0.13096654  0.35999345     0.14300
C713        C  0.81129031  0.58545197  0.21376894    -0.05800
C714        C  0.76062932  0.55632075  0.22310976    -0.05700
C715        C  0.75370007  0.54823455  0.24787832    -0.23900
C716        C  0.79741627  0.56894913  0.26362106     0.18400
C717        C  0.84850385  0.59481556  0.25408543     0.15600
C718        C  0.85504344  0.60291450  0.22929431    -0.18900
C719        C  0.89238260  0.61591013  0.26955926    -0.20700
C720        C  0.88596118  0.61579393  0.29415373    -0.13300
C721        C  0.83564022  0.59393576  0.30380714     0.03400
C722        C  0.79124026  0.56813354  0.28858558    -0.25400
H723        H  0.72643912  0.54324602  0.21141937     0.08500
H724        H  0.71422227  0.52822400  0.25476245     0.12100
H725        H  0.89422516  0.62581299  0.22215579     0.12000
H726        H  0.93176857  0.63553146  0.26255927     0.11800
H727        H  0.92059368  0.63627437  0.30557539     0.12300
H728        H  0.75235226  0.55223680  0.29585132     0.14300
C729        C  0.82681960  0.99821812  0.37808933    -0.05800
C730        C  0.83382650  0.98070653  0.40085595    -0.05700
C731        C  0.82186479  0.92822511  0.40462315    -0.23900
C732        C  0.80293476  0.89243398  0.38566550     0.18400
C733        C  0.79316100  0.90890710  0.36304283     0.15600
C734        C  0.80470970  0.96143162  0.35946161    -0.18900
C735        C  0.77474141  0.87341718  0.34399794    -0.20700
C736        C  0.77010096  0.82350866  0.34681020    -0.13300
C737        C  0.78310900  0.80798185  0.36880302     0.03400
C738        C  0.79690629  0.84166586  0.38852514    -0.25400
H739        H  0.85038913  0.00803734  0.41558085     0.08500
H740        H  0.82934666  0.91621205  0.42211981     0.12100
H741        H  0.79850278  0.97412117  0.34186860     0.12000
H742        H  0.76657399  0.88523873  0.32659454     0.11800
H743        H  0.75896599  0.79811846  0.33138949     0.12300
H744        H  0.80730224  0.83030357  0.40554493     0.14300
C745        C  0.85388104  0.49276393  0.40593609    -0.05800
C746        C  0.86745883  0.47679417  0.42766333    -0.05700
C747        C  0.87038469  0.43039134  0.42909418    -0.23900
C748        C  0.85918336  0.39881256  0.40888625     0.18400
C749        C  0.84826278  0.41586758  0.38667075     0.15600
C750        C  0.84639822  0.46309316  0.38526191    -0.18900
C751        C  0.83664009  0.38398242  0.36651512    -0.20700
C752        C  0.83312084  0.33436747  0.36861903    -0.13300
C753        C  0.84133467  0.31590026  0.39090151     0.03400
C754        C  0.85607952  0.34923706  0.41081398    -0.25400
H755        H  0.87400251  0.49918622  0.44379996     0.08500
H756        H  0.87927828  0.41810418  0.44622316     0.12100
H757        H  0.83586381  0.47484633  0.36838254     0.12000
H758        H  0.82829998  0.39650719  0.34932424     0.11800
H759        H  0.82161588  0.30948590  0.35301046     0.12300
H760        H  0.86287112  0.33567602  0.42808338     0.14300
C761        C  0.96975024  0.80324689  0.37874906    -0.05800
C762        C  0.99196317  0.82453347  0.40123540    -0.05700
C763        C  0.04394319  0.86625612  0.40317332    -0.23900
C764        C  0.07435472  0.88740887  0.38264865     0.18400
C765        C  0.05264871  0.86476945  0.36016865     0.15600
C766        C  0.00102187  0.82287713  0.35841979    -0.18900
C767        C  0.08211112  0.88559559  0.33951534    -0.20700
C768        C  0.13174783  0.93030014  0.34084712    -0.13300
C769        C  0.15318350  0.95480900  0.36287227     0.03400
C770        C  0.12504904  0.93213325  0.38393229    -0.25400
H771        H  0.96879661  0.80989756  0.41722958     0.08500
H772        H  0.05983812  0.88286288  0.42059324     0.12100
H773        H  0.98475610  0.80660876  0.34097452     0.12000
H774        H  0.06602856  0.86846302  0.32218670     0.11800
H775        H  0.15280937  0.94684630  0.32441424     0.12300
H776        H  0.14107682  0.95106894  0.40096403     0.14300
C777        C  0.66278801  0.49436870  0.40111601    -0.05800
C778        C  0.63316959  0.47917200  0.42211207    -0.05700
C779        C  0.58271707  0.43539565  0.42241551    -0.23900
C780        C  0.56080075  0.40563655  0.40175963     0.18400
C781        C  0.58876126  0.42195761  0.38016590     0.15600
C782        C  0.63955846  0.46657057  0.37990467    -0.18900
C783        C  0.56635889  0.39182088  0.35954859    -0.20700
C784        C  0.51845924  0.34426920  0.36073112    -0.13300
C785        C  0.49209118  0.32610793  0.38254786     0.03400
C786        C  0.51258828  0.35830454  0.40275014    -0.25400
H787        H  0.64960953  0.50023247  0.43865013     0.08500
H788        H  0.56161206  0.42371443  0.43905478     0.12100
H789        H  0.66182294  0.47785753  0.36358665     0.12000
H790        H  0.58684868  0.40386039  0.34275741     0.11800
H791        H  0.50341446  0.32050359  0.34479491     0.12300
H792        H  0.49249913  0.34522733  0.41962937     0.14300
C793        C  0.61990377  0.79675846  0.70727533    -0.05800
C794        C  0.58224060  0.74750518  0.71680559    -0.05700
C795        C  0.57134316  0.74193624  0.74129858    -0.23900
C796        C  0.59792529  0.78563958  0.75647765     0.18400
C797        C  0.63162369  0.83624926  0.74636714     0.15600
C798        C  0.64217649  0.84144340  0.72190949    -0.18900
C799        C  0.65800988  0.88026577  0.76115156    -0.20700
C800        C  0.65621591  0.87339638  0.78586589    -0.13300
C801        C  0.62769803  0.82256073  0.79624533     0.03400
C802        C  0.59550320  0.77913020  0.78158057    -0.25400
H803        H  0.56412627  0.71265320  0.70570134     0.08500
H804        H  0.54467251  0.70295279  0.74856304     0.12100
H805        H  0.67052406  0.87977669  0.71454635     0.12000
H806        H  0.68318611  0.91943801  0.75364923     0.11800
H807        H  0.68061612  0.90746126  0.79690008     0.12300
H808        H  0.57339342  0.73980362  0.78947167     0.14300
C809        C  0.34251095  0.47850042  0.61619498    -0.05800
C810        C  0.35909034  0.50179332  0.63889822    -0.05700
C811        C  0.40786573  0.54769044  0.64217471    -0.23900
C812        C  0.44125569  0.57157405  0.62282082     0.18400
C813        C  0.42648782  0.54693919  0.60023805     0.15600
C814        C  0.37757096  0.50042488  0.59711325    -0.18900
C815        C  0.45958524  0.57088823  0.58080148    -0.20700
C816        C  0.50479212  0.62043013  0.58326423    -0.13300
C817        C  0.51842565  0.64675552  0.60528566     0.03400
C818        C  0.48759345  0.62106903  0.62531320    -0.25400
H819        H  0.33339623  0.48584116  0.65405392     0.08500
H820        H  0.41851884  0.56565224  0.65966293     0.12100
H821        H  0.36576518  0.48304171  0.57953095     0.12000
H822        H  0.44929451  0.55247593  0.56340766     0.11800
H823        H  0.52822787  0.63923515  0.56762550     0.12300
H824        H  0.49750877  0.64118301  0.64231847     0.14300
C825        C  0.81797736  0.96379945  0.62207604    -0.05800
C826        C  0.84510306  0.97997996  0.60039069    -0.05700
C827        C  0.88449165  0.03262167  0.59667105    -0.23900
C828        C  0.89770011  0.07026922  0.61456523     0.18400
C829        C  0.86909917  0.05508752  0.63599962     0.15600
C830        C  0.82933890  0.00215818  0.63956618    -0.18900
C831        C  0.88264047  0.09245560  0.65404827    -0.20700
C832        C  0.92651137  0.14303003  0.65165951    -0.13300
C833        C  0.95702691  0.15763406  0.63099286     0.03400
C834        C  0.94100168  0.12182947  0.61201411    -0.25400
H835        H  0.83727820  0.95147454  0.58656689     0.08500
H836        H  0.90585985  0.04344133  0.58011286     0.12100
H837        H  0.80866497  0.99049456  0.65632556     0.12000
H838        H  0.86099151  0.08173107  0.67052807     0.11800
H839        H  0.93823466  0.17001816  0.66651247     0.12300
H840        H  0.96478235  0.13246117  0.59618175     0.14300
C841        C  0.35519805  0.85875657  0.60780728    -0.05800
C842        C  0.38668887  0.88324370  0.58778335    -0.05700
C843        C  0.43516951  0.88583567  0.58567053    -0.23900
C844        C  0.45287533  0.86323272  0.60338420     0.18400
C845        C  0.42290944  0.84096388  0.62419587     0.15600
C846        C  0.37452896  0.83944713  0.62643399    -0.18900
C847        C  0.44052071  0.81807433  0.64181868    -0.20700
C848        C  0.48597456  0.81518877  0.63842338    -0.13300
C849        C  0.51483896  0.83494514  0.61728345     0.03400
C850        C  0.49864320  0.86025221  0.60008535    -0.25400
H851        H  0.37267120  0.89845367  0.57319916     0.08500
H852        H  0.45769041  0.90343935  0.56967689     0.12100
H853        H  0.35028629  0.81978582  0.64177641     0.12000
H854        H  0.41824540  0.80086436  0.65790925     0.11800
H855        H  0.49731151  0.79545401  0.65203301     0.12300
H856        H  0.52052304  0.87594413  0.58377392     0.14300
C857        C  0.84758382  0.78905423  0.62832941    -0.05800
C858        C  0.86113834  0.76875708  0.64867094    -0.05700
C859        C  0.91111535  0.77452920  0.65135036    -0.23900
C860        C  0.94900523  0.80180959  0.63393693     0.18400
C861        C  0.93500623  0.81972207  0.61270587     0.15600
C862        C  0.88395992  0.81252029  0.60984668    -0.18900
C863        C  0.97327180  0.84728393  0.59541065    -0.20700
C864        C  0.02528079  0.85926831  0.59962601    -0.13300
C865        C  0.04017572  0.84404241  0.62123812     0.03400
C866        C  0.00126905  0.81389328  0.63802309    -0.25400
H867        H  0.83363904  0.75053773  0.66308924     0.08500
H868        H  0.92093221  0.76005875  0.66762194     0.12100
H869        H  0.87403750  0.82889655  0.59424038     0.12000
H870        H  0.96341282  0.86117928  0.57897566     0.11800
H871        H  0.05431141  0.88234135  0.58631712     0.12300
H872        H  0.01196812  0.80135426  0.65464509     0.14300
C873        C  0.78909880  0.71372670  0.46878029    -0.05800
C874        C  0.82635835  0.76514218  0.47606958    -0.05700
C875        C  0.81643548  0.78857301  0.49527702    -0.23900
C876        C  0.76843178  0.76154646  0.50713245     0.18400
C877        C  0.73019502  0.71027768  0.49947858     0.15600
C878        C  0.74109712  0.68639349  0.48068367    -0.18900
C879        C  0.68143037  0.68388450  0.51058899    -0.20700
C880        C  0.67050787  0.70795222  0.52906319    -0.13300
C881        C  0.70842398  0.75844245  0.53722186     0.03400
C882        C  0.75769548  0.78497535  0.52629594    -0.25400
H883        H  0.86356835  0.78691856  0.46710653     0.08500
H884        H  0.84612627  0.82799627  0.50071955     0.12100
H885        H  0.71176202  0.64700971  0.47495118     0.12000
H886        H  0.65156425  0.64472330  0.50489894     0.11800
H887        H  0.63240862  0.68650870  0.53731004     0.12300
H888        H  0.78704684  0.82403523  0.53235130     0.14300
loop_ 
_geom_bond_atom_site_label_1 
_geom_bond_atom_site_label_2 
_geom_bond_distance 
_geom_bond_site_symmetry_2 
_ccdc_geom_bond_type 
O1           Ni7   1.931       .  S
O1           C22   1.274       .  A
O2          Ni25   1.906       .  S
O2           C11   1.267       .  A
O3           Ni7   1.896       .  S
O3          Ni25   1.903       .  S
O3          Ni19   1.924       .  S
O3           H26   0.966       .  S
C4           O21   1.280       .  A
C4           O13   1.280       .  A
C4          C857   1.479       .  S
O5          Ni24   1.941       .  S
O5           C11   1.276       .  A
O6          Ni24   1.916       .  S
O6            C8   1.271       .  A
Ni7          O10   1.936       .  S
Ni7          O12   1.904       .  S
C8           O18   1.273       .  A
C8          C825   1.488       .  S
O9          Ni25   1.916       .  S
O9           C15   1.274       .  A
O10          C15   1.279       .  A
C11         C793   1.478       .  S
O12          C14   1.270       .  A
O13         Ni24   1.932       .  S
C14          O20   1.277       .  A
C14         C817   1.482       .  S
C15         C849   1.489       .  S
H16          O17   0.966       .  S
O17         Ni25   1.902       .  S
O17         Ni19   1.904       .  S
O17         Ni24   1.897       .  S
O18         Ni19   1.933       .  S
Ni19         O23   1.915       .  S
Ni19         O21   1.927       .  S
O20         Ni25   1.939       .  S
C22          O23   1.271       .  A
C22         C881   1.482       .  S
O27         Ni33   1.942       .  S
O27          C48   1.274       .  A
O28         Ni51   1.934       .  S
O28          C37   1.272       .  A
O29         Ni33   1.897       .  S
O29         Ni51   1.915       .  S
O29         Ni45   1.910       .  S
O29          H52   0.966       .  S
C30          O47   1.279       .  A
C30          O39   1.278       .  A
C30         C737   1.477       .  S
O31         Ni50   1.917       .  S
O31          C37   1.266       .  A
O32         Ni50   1.899       .  S
O32          C34   1.267       .  A
Ni33         O36   1.927       .  S
Ni33         O38   1.896       .  S
C34          O44   1.268       .  A
C34         C761   1.480       .  S
O35         Ni51   1.913       .  S
O35          C41   1.276       .  A
O36          C41   1.279       .  A
C37         C721   1.476       .  S
O38          C40   1.269       .  A
O39         Ni50   1.916       .  S
C40          O46   1.276       .  A
C40         C777   1.481       .  S
C41         C745   1.480       .  S
H42          O43   0.966       .  S
O43         Ni51   1.906       .  S
O43         Ni45   1.900       .  S
O43         Ni50   1.894       .  S
O44         Ni45   1.921       .  S
Ni45         O49   1.906       .  S
Ni45         O47   1.921       .  S
O46         Ni51   1.935       .  S
C48          O49   1.267       .  A
C48         C873   1.480       .  S
O53         Ni59   1.933       .  S
O53          C74   1.273       .  A
O54         Ni77   1.919       .  S
O54          C63   1.269       .  A
O55         Ni59   1.889       .  S
O55         Ni77   1.904       .  S
O55         Ni71   1.911       .  S
O55          H78   0.966       .  S
C56          O73   1.279       .  A
C56          O65   1.279       .  A
C56         C769   1.475   1_545  S
O57         Ni76   1.925       .  S
O57          C63   1.271       .  A
O58         Ni76   1.902       .  S
O58          C60   1.267       .  A
Ni59         O62   1.924       .  S
Ni59         O64   1.903       .  S
C60          O70   1.272       .  A
C60         C681   1.486       .  S
O61         Ni77   1.917       .  S
O61          C67   1.276       .  A
O62          C67   1.279       .  A
C63         C657   1.475       .  S
O64          C66   1.269       .  A
O65         Ni76   1.920       .  S
C66          O72   1.274       .  A
C66         C697   1.482       .  S
C67         C785   1.481       .  S
H68          O69   0.966       .  S
O69         Ni77   1.900       .  S
O69         Ni71   1.905       .  S
O69         Ni76   1.889       .  S
O70         Ni71   1.935       .  S
Ni71         O75   1.916       .  S
Ni71         O73   1.919       .  S
O72         Ni77   1.932       .  S
C74          O75   1.270       .  A
C74         C673   1.475       .  S
O79         Ni85   1.941       .  S
O79         C100   1.275       .  A
O80        Ni103   1.927       .  S
O80          C89   1.270       .  A
O81         Ni85   1.909       .  S
O81        Ni103   1.920       .  S
O81         Ni97   1.923       .  S
O81         H104   0.966       .  S
C82          O99   1.279       .  A
C82          O91   1.276       .  A
C82         C633   1.474   1_565  S
O83        Ni102   1.925       .  S
O83          C89   1.269       .  A
O84        Ni102   1.915       .  S
O84          C86   1.269       .  A
Ni85         O88   1.937       .  S
Ni85         O90   1.898       .  S
C86          O96   1.270       .  A
C86         C865   1.488       .  S
O87        Ni103   1.899       .  S
O87          C93   1.269       .  A
O88          C93   1.278       .  A
C89         C601   1.477       .  S
O90          C92   1.270       .  A
O91        Ni102   1.916       .  S
C92          O98   1.280       .  A
C92         C841   1.482       .  S
C93         C617   1.485       .  S
H94          O95   0.967       .  S
O95        Ni103   1.898       .  S
O95         Ni97   1.908       .  S
O95        Ni102   1.906       .  S
O96         Ni97   1.927       .  S
Ni97        O101   1.909       .  S
Ni97         O99   1.925       .  S
O98        Ni103   1.946       .  S
C100        O101   1.268       .  A
C100        C665   1.490       .  S
O105       Ni111   1.945       .  S
O105        C126   1.276       .  A
O106       Ni129   1.930       .  S
O106        C115   1.273       .  A
O107       Ni111   1.895       .  S
O107       Ni129   1.912       .  S
O107       Ni123   1.927       .  S
O107        H130   0.966       .  S
C108        O125   1.281       .  A
C108        O117   1.278       .  A
C108        C833   1.479   1_455  S
O109       Ni128   1.927       .  S
O109        C115   1.271       .  A
O110       Ni128   1.912       .  S
O110        C112   1.269       .  A
Ni111       O114   1.941       .  S
Ni111       O116   1.894       .  S
C112        O122   1.267       .  A
C112        C641   1.481       .  S
O113       Ni129   1.916       .  S
O113        C119   1.275       .  A
O114        C119   1.281       .  A
C115        C569   1.484       .  S
O116        C118   1.269       .  A
O117       Ni128   1.925       .  S
C118        O124   1.279       .  A
C118        C625   1.480       .  S
C119        C809   1.493       .  S
H120        O121   0.966       .  S
O121       Ni129   1.904       .  S
O121       Ni123   1.906       .  S
O121       Ni128   1.901       .  S
O122       Ni123   1.916       .  S
Ni123       O127   1.919       .  S
Ni123       O125   1.928       .  S
O124       Ni129   1.940       .  S
C126        O127   1.269       .  A
C126        C585   1.488       .  S
O131       Ni137   1.941       .  S
O131        C152   1.274       .  A
O132       Ni155   1.938       .  S
O132        C141   1.273       .  A
O133       Ni137   1.901       .  S
O133       Ni155   1.918       .  S
O133       Ni149   1.912       .  S
O133        H156   0.966       .  S
C134        O151   1.277       .  A
C134        O143   1.279       .  A
C134        C689   1.478   1_655  S
O135       Ni154   1.928       .  S
O135        C141   1.268       .  A
O136       Ni154   1.904       .  S
O136        C138   1.268       .  A
Ni137       O140   1.923       .  S
Ni137       O142   1.903       .  S
C138        O148   1.271       .  A
C138        C729   1.481   1_545  S
O139       Ni155   1.926       .  S
O139        C145   1.280       .  A
O140        C145   1.279       .  A
C141        C561   1.488       .  S
O142        C144   1.269       .  A
O143       Ni154   1.925       .  S
C144        O150   1.272       .  A
C144        C753   1.480       .  S
C145        C705   1.486       .  S
H146        O147   0.966       .  S
O147       Ni155   1.911       .  S
O147       Ni149   1.912       .  S
O147       Ni154   1.904       .  S
O148       Ni149   1.924       .  S
Ni149       O153   1.922       .  S
Ni149       O151   1.919       .  S
O150       Ni155   1.923       .  S
C152        O153   1.270       .  A
C152        C593   1.492       .  S
O157       Ni163   1.923       .  S
O157        C178   1.269       .  A
O158       Ni181   1.908       .  S
O158        C167   1.266       .  A
O159       Ni163   1.895       .  S
O159       Ni181   1.908       .  S
O159       Ni175   1.912       .  S
O159        H182   0.966       .  S
C160        O177   1.278       .  A
C160        O169   1.280       .  A
C160        C505   1.485       .  S
O161       Ni180   1.937       .  S
O161        C167   1.274       .  A
O162       Ni180   1.904       .  S
O162        C164   1.270       .  A
Ni163       O166   1.925       .  S
Ni163       O168   1.896       .  S
C164        O174   1.273       .  A
C164        C481   1.481       .  S
O165       Ni181   1.921       .  S
O165        C171   1.277       .  A
O166        C171   1.278       .  A
C167        C537   1.477       .  S
O168        C170   1.266       .  A
O169       Ni180   1.926       .  S
C170        O176   1.270       .  A
C170        C497   1.476       .  S
C171        C529   1.483       .  S
H172        O173   0.966       .  S
O173       Ni181   1.910       .  S
O173       Ni175   1.908       .  S
O173       Ni180   1.894       .  S
O174       Ni175   1.929       .  S
Ni175       O179   1.923       .  S
Ni175       O177   1.922       .  S
O176       Ni181   1.928       .  S
C178        O179   1.269       .  A
C178        C801   1.476       .  S
O183       Ni189   1.923       .  S
O183        C204   1.267       .  A
O184       Ni207   1.920       .  S
O184        C193   1.271       .  A
O185       Ni189   1.899       .  S
O185       Ni207   1.910       .  S
O185       Ni201   1.915       .  S
O185        H208   0.966       .  S
C186        O203   1.282       .  A
C186        O195   1.278       .  A
C186        C457   1.472       .  S
O187       Ni206   1.923       .  S
O187        C193   1.272       .  A
O188       Ni206   1.908       .  S
O188        C190   1.268       .  A
Ni189       O192   1.923       .  S
Ni189       O194   1.893       .  S
C190        O200   1.269       .  A
C190        C433   1.483       .  S
O191       Ni207   1.902       .  S
O191        C197   1.273       .  A
O192        C197   1.278       .  A
C193        C545   1.486       .  S
O194        C196   1.267       .  A
O195       Ni206   1.906       .  S
C196        O202   1.275       .  A
C196        C409   1.484       .  S
C197        C441   1.471       .  S
H198        O199   0.966       .  S
O199       Ni207   1.895       .  S
O199       Ni201   1.906       .  S
O199       Ni206   1.890       .  S
O200       Ni201   1.922       .  S
Ni201       O205   1.926       .  S
Ni201       O203   1.926       .  S
O202       Ni207   1.941       .  S
C204        O205   1.269       .  A
C204        C713   1.476       .  S
O209       Ni215   1.930       .  S
O209        C230   1.271       .  A
O210       Ni233   1.914       .  S
O210        C219   1.267       .  A
O211       Ni215   1.902       .  S
O211       Ni233   1.911       .  S
O211       Ni227   1.911       .  S
O211        H234   0.966       .  S
C212        O229   1.279       .  A
C212        O221   1.280       .  A
C212        C425   1.483       .  S
O213       Ni232   1.941       .  S
O213        C219   1.275       .  A
O214       Ni232   1.916       .  S
O214        C216   1.270       .  A
Ni215       O218   1.931       .  S
Ni215       O220   1.897       .  S
C216        O226   1.267       .  A
C216        C401   1.482       .  S
O217       Ni233   1.900       .  S
O217        C223   1.270       .  A
O218        C223   1.278       .  A
C219        C369   1.482       .  S
O220        C222   1.268       .  A
O221       Ni232   1.926       .  S
C222        O228   1.277       .  A
C222        C385   1.487       .  S
C223        C417   1.477   1_545  S
H224        O225   0.966       .  S
O225       Ni233   1.903       .  S
O225       Ni227   1.907       .  S
O225       Ni232   1.905       .  S
O226       Ni227   1.912       .  S
Ni227       O231   1.914       .  S
Ni227       O229   1.922       .  S
O228       Ni233   1.946       .  S
C230        O231   1.266       .  A
C230        C649   1.473       .  S
O235       Ni241   1.919       .  S
O235        C256   1.266       .  A
O236       Ni259   1.916       .  S
O236        C245   1.269       .  A
O237       Ni241   1.900       .  S
O237       Ni259   1.905       .  S
O237       Ni253   1.909       .  S
O237        H260   0.966       .  S
C238        O255   1.280       .  A
C238        O247   1.278       .  A
C238        C337   1.478       .  S
O239       Ni258   1.936       .  S
O239        C245   1.274       .  A
O240       Ni258   1.908       .  S
O240        C242   1.270       .  A
Ni241       O244   1.922       .  S
Ni241       O246   1.900       .  S
C242        O252   1.272       .  A
C242        C513   1.485       .  S
O243       Ni259   1.903       .  S
O243        C249   1.275       .  A
O244        C249   1.278       .  A
C245        C361   1.492       .  S
O246        C248   1.268       .  A
O247       Ni258   1.915       .  S
C248        O254   1.272       .  A
C248        C521   1.487       .  S
C249        C345   1.470   1_565  S
H250        O251   0.966       .  S
O251       Ni259   1.902       .  S
O251       Ni253   1.917       .  S
O251       Ni258   1.897       .  S
O252       Ni253   1.927       .  S
Ni253       O257   1.934       .  S
Ni253       O255   1.923       .  S
O254       Ni259   1.936       .  S
C256        O257   1.271       .  A
C256        C609   1.479       .  S
O261       Ni267   1.920       .  S
O261        C282   1.267       .  A
O262       Ni285   1.912       .  S
O262        C271   1.267       .  A
O263       Ni267   1.903       .  S
O263       Ni285   1.914       .  S
O263       Ni279   1.914       .  S
O263        H286   0.966       .  S
C264        O281   1.278       .  A
C264        O273   1.278       .  A
C264        C473   1.481       .  S
O265       Ni284   1.943       .  S
O265        C271   1.274       .  A
O266       Ni284   1.905       .  S
O266        C268   1.270       .  A
Ni267       O270   1.919       .  S
Ni267       O272   1.896       .  S
C268        O278   1.268       .  A
C268        C329   1.476       .  S
O269       Ni285   1.909       .  S
O269        C275   1.272       .  A
O270        C275   1.276       .  A
C271        C313   1.492       .  S
O272        C274   1.267       .  A
O273       Ni284   1.922       .  S
C274        O280   1.270       .  A
C274        C353   1.472       .  S
C275        C489   1.473   1_455  S
H276        O277   0.967       .  S
O277       Ni285   1.903       .  S
O277       Ni279   1.921       .  S
O277       Ni284   1.904       .  S
O278       Ni279   1.913       .  S
Ni279       O283   1.934       .  S
Ni279       O281   1.922       .  S
O280       Ni285   1.921       .  S
C282        O283   1.270       .  A
C282        C577   1.481       .  S
O287       Ni293   1.928       .  S
O287        C308   1.269       .  A
O288       Ni311   1.924       .  S
O288        C297   1.270       .  A
O289       Ni293   1.904       .  S
O289       Ni311   1.922       .  S
O289       Ni305   1.922       .  S
O289        H312   0.964       .  S
C290        O307   1.282       .  A
C290        O299   1.278       .  A
C290        C393   1.482       .  S
O291       Ni310   1.936       .  S
O291        C297   1.273       .  A
O292       Ni310   1.906       .  S
O292        C294   1.269       .  A
Ni293       O296   1.927       .  S
Ni293       O298   1.893       .  S
C294        O304   1.265       .  A
C294        C465   1.473       .  S
O295       Ni311   1.910       .  S
O295        C301   1.272       .  A
O296        C301   1.276       .  A
C297        C321   1.487       .  S
O298        C300   1.268       .  A
O299       Ni310   1.917       .  S
C300        O306   1.273       .  A
C300        C449   1.472       .  S
C301        C377   1.478   1_655  S
H302        O303   0.966       .  S
O303       Ni311   1.902       .  S
O303       Ni305   1.916       .  S
O303       Ni310   1.901       .  S
O304       Ni305   1.906       .  S
Ni305       O309   1.937       .  S
Ni305       O307   1.934       .  S
O306       Ni311   1.928       .  S
C308        O309   1.272       .  A
C308        C553   1.486       .  S
C313        C314   1.408       .  A
C313        C318   1.408       .  A
C314        C315   1.404   1_455  A
C314        H323   1.083       .  S
C315        C316   1.405   1_556  A
C315        H324   1.083       .  S
C316        C322   1.415       .  A
C316        C317   1.414   1_655  A
C317        C319   1.401       .  A
C317        C318   1.407   1_554  A
C318        H325   1.084       .  S
C319        C320   1.396   1_455  A
C319        H326   1.084       .  S
C320        C321   1.406       .  A
C320        H327   1.083       .  S
C321        C322   1.410       .  A
C322        H328   1.084       .  S
C329        C330   1.408       .  A
C329        C334   1.402       .  A
C330        C331   1.397       .  A
C330        H339   1.083       .  S
C331        C332   1.402       .  A
C331        H340   1.084       .  S
C332        C338   1.404       .  A
C332        C333   1.414       .  A
C333        C335   1.397       .  A
C333        C334   1.397       .  A
C334        H341   1.084       .  S
C335        C336   1.391       .  A
C335        H342   1.084       .  S
C336        C337   1.408       .  A
C336        H343   1.083       .  S
C337        C338   1.406       .  A
C338        H344   1.084       .  S
C345        C346   1.404       .  A
C345        C350   1.405       .  A
C346        C347   1.394       .  A
C346        H355   1.083       .  S
C347        C348   1.401       .  A
C347        H356   1.084       .  S
C348        C354   1.397       .  A
C348        C349   1.413       .  A
C349        C351   1.402       .  A
C349        C350   1.399       .  A
C350        H357   1.085   1_545  S
C351        C352   1.396       .  A
C351        H358   1.084       .  S
C352        C353   1.404       .  A
C352        H359   1.083       .  S
C353        C354   1.405       .  A
C354        H360   1.085       .  S
C361        C362   1.409       .  A
C361        C366   1.407       .  A
C362        C363   1.406       .  A
C362        H371   1.083       .  S
C363        C364   1.407   1_556  A
C363        H372   1.083       .  S
C364        C370   1.416   1_565  A
C364        C365   1.414       .  A
C365        C367   1.399       .  A
C365        C366   1.404   1_554  A
C366        H373   1.084       .  S
C367        C368   1.393       .  A
C367        H374   1.084       .  S
C368        C369   1.404   1_565  A
C368        H375   1.084   1_565  S
C369        C370   1.411       .  A
C370        H376   1.084       .  S
C377        C378   1.404       .  A
C377        C382   1.409       .  A
C378        C379   1.396       .  A
C378        H387   1.083       .  S
C379        C380   1.402       .  A
C379        H388   1.084       .  S
C380        C386   1.402       .  A
C380        C381   1.412       .  A
C381        C383   1.405       .  A
C381        C382   1.407       .  A
C382        H389   1.084       .  S
C383        C384   1.402       .  A
C383        H390   1.084       .  S
C384        C385   1.406       .  A
C384        H391   1.083       .  S
C385        C386   1.410       .  A
C386        H392   1.084       .  S
C393        C394   1.408       .  A
C393        C398   1.406       .  A
C394        C395   1.394       .  A
C394        H403   1.083       .  S
C395        C396   1.399       .  A
C395        H404   1.084       .  S
C396        C402   1.404       .  A
C396        C397   1.415       .  A
C397        C399   1.401       .  A
C397        C398   1.408       .  A
C398        H405   1.084       .  S
C399        C400   1.398       .  A
C399        H406   1.084       .  S
C400        C401   1.409       .  A
C400        H407   1.083       .  S
C401        C402   1.404       .  A
C402        H408   1.084       .  S
C409        C410   1.410   1_655  A
C409        C414   1.408   1_655  A
C410        C411   1.390       .  A
C410        H419   1.083   1_455  S
C411        C412   1.396       .  A
C411        H420   1.084       .  S
C412        C418   1.399       .  A
C412        C413   1.415       .  A
C413        C415   1.403       .  A
C413        C414   1.409       .  A
C414        H421   1.084   1_455  S
C415        C416   1.400       .  A
C415        H422   1.083       .  S
C416        C417   1.407       .  A
C416        H423   1.083       .  S
C417        C418   1.402       .  A
C418        H424   1.085       .  S
C425        C426   1.407       .  A
C425        C430   1.409       .  A
C426        C427   1.396       .  A
C426        H435   1.083       .  S
C427        C428   1.400       .  A
C427        H436   1.084       .  S
C428        C434   1.403       .  A
C428        C429   1.413       .  A
C429        C431   1.403       .  A
C429        C430   1.406       .  A
C430        H437   1.084       .  S
C431        C432   1.399       .  A
C431        H438   1.084       .  S
C432        C433   1.408       .  A
C432        H439   1.083       .  S
C433        C434   1.406       .  A
C434        H440   1.084       .  S
C441        C442   1.403       .  A
C441        C446   1.407       .  A
C442        C443   1.394       .  A
C442        H451   1.083       .  S
C443        C444   1.401       .  A
C443        H452   1.084       .  S
C444        C450   1.396       .  A
C444        C445   1.412       .  A
C445        C447   1.404       .  A
C445        C446   1.400       .  A
C446        H453   1.085       .  S
C447        C448   1.398       .  A
C447        H454   1.084       .  S
C448        C449   1.404   1_565  A
C448        H455   1.083   1_565  S
C449        C450   1.405   1_545  A
C450        H456   1.085       .  S
C457        C458   1.407       .  A
C457        C462   1.404       .  A
C458        C459   1.388       .  A
C458        H467   1.083       .  S
C459        C460   1.396       .  A
C459        H468   1.084       .  S
C460        C466   1.396       .  A
C460        C461   1.415       .  A
C461        C463   1.401       .  A
C461        C462   1.403       .  A
C462        H469   1.084       .  S
C463        C464   1.396       .  A
C463        H470   1.084       .  S
C464        C465   1.408       .  A
C464        H471   1.083       .  S
C465        C466   1.400       .  A
C466        H472   1.085       .  S
C473        C474   1.407       .  A
C473        C478   1.408       .  A
C474        C475   1.392       .  A
C474        H483   1.083       .  S
C475        C476   1.398       .  A
C475        H484   1.084       .  S
C476        C482   1.400       .  A
C476        C477   1.414       .  A
C477        C479   1.404       .  A
C477        C478   1.408       .  A
C478        H485   1.084       .  S
C479        C480   1.402       .  A
C479        H486   1.083       .  S
C480        C481   1.406       .  A
C480        H487   1.083       .  S
C481        C482   1.405       .  A
C482        H488   1.085       .  S
C489        C490   1.403       .  A
C489        C494   1.408       .  A
C490        C491   1.393       .  A
C490        H499   1.083       .  S
C491        C492   1.400       .  A
C491        H500   1.084       .  S
C492        C498   1.398   1_545  A
C492        C493   1.413       .  A
C493        C495   1.404       .  A
C493        C494   1.404       .  A
C494        H501   1.085       .  S
C495        C496   1.400   1_545  A
C495        H502   1.084       .  S
C496        C497   1.405       .  A
C496        H503   1.083       .  S
C497        C498   1.404       .  A
C498        H504   1.085       .  S
C505        C506   1.408       .  A
C505        C510   1.407       .  A
C506        C507   1.401       .  A
C506        H515   1.083       .  S
C507        C508   1.404       .  A
C507        H516   1.084       .  S
C508        C514   1.408       .  A
C508        C509   1.413       .  A
C509        C511   1.400       .  A
C509        C510   1.402       .  A
C510        H517   1.084       .  S
C511        C512   1.395       .  A
C511        H518   1.084       .  S
C512        C513   1.407       .  A
C512        H519   1.083       .  S
C513        C514   1.410       .  A
C514        H520   1.084       .  S
C521        C522   1.408   1_455  A
C521        C526   1.411   1_455  A
C522        C523   1.392       .  A
C522        H531   1.083   1_655  S
C523        C524   1.398       .  A
C523        H532   1.084       .  S
C524        C530   1.400       .  A
C524        C525   1.413       .  A
C525        C527   1.405       .  A
C525        C526   1.411       .  A
C526        H533   1.084   1_655  S
C527        C528   1.403       .  A
C527        H534   1.083       .  S
C528        C529   1.407       .  A
C528        H535   1.083       .  S
C529        C530   1.405       .  A
C530        H536   1.084       .  S
C537        C538   1.403       .  A
C537        C542   1.409       .  A
C538        C539   1.392       .  A
C538        H547   1.084       .  S
C539        C540   1.400   1_556  A
C539        H548   1.084       .  S
C540        C546   1.399       .  A
C540        C541   1.413       .  A
C541        C543   1.407       .  A
C541        C542   1.411   1_554  A
C542        H549   1.084       .  S
C543        C544   1.405       .  A
C543        H550   1.083       .  S
C544        C545   1.406       .  A
C544        H551   1.083       .  S
C545        C546   1.407       .  A
C546        H552   1.084       .  S
C553        C554   1.405       .  A
C553        C558   1.411       .  A
C554        C555   1.397       .  A
C554        H563   1.084       .  S
C555        C556   1.401       .  A
C555        H564   1.084       .  S
C556        C562   1.408       .  A
C556        C557   1.415       .  A
C557        C559   1.407       .  A
C557        C558   1.417       .  A
C558        H565   1.084       .  S
C559        C560   1.407       .  A
C559        H566   1.083       .  S
C560        C561   1.406       .  A
C560        H567   1.083       .  S
C561        C562   1.407       .  A
C562        H568   1.084       .  S
C569        C570   1.405       .  A
C569        C574   1.405       .  A
C570        C571   1.408       .  A
C570        H579   1.083       .  S
C571        C572   1.409       .  A
C571        H580   1.083       .  S
C572        C578   1.416       .  A
C572        C573   1.414       .  A
C573        C575   1.399       .  A
C573        C574   1.402       .  A
C574        H581   1.085       .  S
C575        C576   1.393       .  A
C575        H582   1.084       .  S
C576        C577   1.404       .  A
C576        H583   1.084       .  S
C577        C578   1.411       .  A
C578        H584   1.084       .  S
C585        C586   1.405       .  A
C585        C590   1.411       .  A
C586        C587   1.397       .  A
C586        H595   1.083       .  S
C587        C588   1.401   1_455  A
C587        H596   1.084       .  S
C588        C594   1.408       .  A
C588        C589   1.414   1_655  A
C589        C591   1.407   1_455  A
C589        C590   1.416       .  A
C590        H597   1.084       .  S
C591        C592   1.406       .  A
C591        H598   1.083       .  S
C592        C593   1.407       .  A
C592        H599   1.083       .  S
C593        C594   1.408       .  A
C594        H600   1.084       .  S
C601        C602   1.403       .  A
C601        C606   1.409       .  A
C602        C603   1.395       .  A
C602        H611   1.084       .  S
C603        C604   1.400       .  A
C603        H612   1.084       .  S
C604        C610   1.404       .  A
C604        C605   1.415       .  A
C605        C607   1.407       .  A
C605        C606   1.414       .  A
C606        H613   1.084       .  S
C607        C608   1.405       .  A
C607        H614   1.083       .  S
C608        C609   1.405       .  A
C608        H615   1.083       .  S
C609        C610   1.404       .  A
C610        H616   1.085       .  S
C617        C618   1.410       .  A
C617        C622   1.404       .  A
C618        C619   1.397       .  A
C618        H627   1.083       .  S
C619        C620   1.400       .  A
C619        H628   1.084       .  S
C620        C626   1.408       .  A
C620        C621   1.416       .  A
C621        C623   1.398       .  A
C621        C622   1.404       .  A
C622        H629   1.084       .  S
C623        C624   1.393       .  A
C623        H630   1.084       .  S
C624        C625   1.409       .  A
C624        H631   1.083       .  S
C625        C626   1.404       .  A
C626        H632   1.084       .  S
C633        C634   1.406       .  A
C633        C638   1.403       .  A
C634        C635   1.394       .  A
C634        H643   1.083       .  S
C635        C636   1.399       .  A
C635        H644   1.084       .  S
C636        C642   1.403       .  A
C636        C637   1.416       .  A
C637        C639   1.400       .  A
C637        C638   1.406       .  A
C638        H645   1.085       .  S
C639        C640   1.397       .  A
C639        H646   1.084       .  S
C640        C641   1.408       .  A
C640        H647   1.083       .  S
C641        C642   1.405       .  A
C642        H648   1.084       .  S
C649        C650   1.405       .  A
C649        C654   1.400       .  A
C650        C651   1.404       .  A
C650        H659   1.083       .  S
C651        C652   1.406       .  A
C651        H660   1.083       .  S
C652        C658   1.412       .  A
C652        C653   1.416       .  A
C653        C655   1.397       .  A
C653        C654   1.399       .  A
C654        H661   1.085       .  S
C655        C656   1.390       .  A
C655        H662   1.084       .  S
C656        C657   1.404       .  A
C656        H663   1.084       .  S
C657        C658   1.408       .  A
C658        H664   1.084       .  S
C665        C666   1.408       .  A
C665        C670   1.409       .  A
C666        C667   1.401   1_565  A
C666        H675   1.083       .  S
C667        C668   1.403       .  A
C667        H676   1.084       .  S
C668        C674   1.409       .  A
C668        C669   1.415   1_545  A
C669        C671   1.402       .  A
C669        C670   1.406       .  A
C670        H677   1.084       .  S
C671        C672   1.397   1_565  A
C671        H678   1.084       .  S
C672        C673   1.404       .  A
C672        H679   1.084       .  S
C673        C674   1.404       .  A
C674        H680   1.084       .  S
C681        C682   1.407       .  A
C681        C686   1.407       .  A
C682        C683   1.402       .  A
C682        H691   1.083       .  S
C683        C684   1.404       .  A
C683        H692   1.084       .  S
C684        C690   1.408       .  A
C684        C685   1.413       .  A
C685        C687   1.400       .  A
C685        C686   1.401       .  A
C686        H693   1.084       .  S
C687        C688   1.394       .  A
C687        H694   1.084       .  S
C688        C689   1.405       .  A
C688        H695   1.083       .  S
C689        C690   1.408       .  A
C690        H696   1.084       .  S
C697        C698   1.405       .  A
C697        C702   1.407       .  A
C698        C699   1.402       .  A
C698        H707   1.083       .  S
C699        C700   1.405       .  A
C699        H708   1.083       .  S
C700        C706   1.408       .  A
C700        C701   1.413       .  A
C701        C703   1.399       .  A
C701        C702   1.400       .  A
C702        H709   1.085       .  S
C703        C704   1.393       .  A
C703        H710   1.084       .  S
C704        C705   1.408       .  A
C704        H711   1.083       .  S
C705        C706   1.410       .  A
C706        H712   1.084       .  S
C713        C714   1.404       .  A
C713        C718   1.403       .  A
C714        C715   1.403       .  A
C714        H723   1.083       .  S
C715        C716   1.406       .  A
C715        H724   1.083       .  S
C716        C722   1.412       .  A
C716        C717   1.415       .  A
C717        C719   1.400       .  A
C717        C718   1.404       .  A
C718        H725   1.085       .  S
C719        C720   1.394       .  A
C719        H726   1.084       .  S
C720        C721   1.405       .  A
C720        H727   1.084       .  S
C721        C722   1.407       .  A
C722        H728   1.084       .  S
C729        C730   1.407       .  A
C729        C734   1.407       .  A
C730        C731   1.397       .  A
C730        H739   1.083   1_565  S
C731        C732   1.402       .  A
C731        H740   1.084       .  S
C732        C738   1.403       .  A
C732        C733   1.413       .  A
C733        C735   1.400       .  A
C733        C734   1.401       .  A
C734        H741   1.084       .  S
C735        C736   1.395       .  A
C735        H742   1.084       .  S
C736        C737   1.407       .  A
C736        H743   1.083       .  S
C737        C738   1.406       .  A
C738        H744   1.084       .  S
C745        C746   1.407       .  A
C745        C750   1.407       .  A
C746        C747   1.396       .  A
C746        H755   1.083       .  S
C747        C748   1.401       .  A
C747        H756   1.084       .  S
C748        C754   1.401       .  A
C748        C749   1.413       .  A
C749        C751   1.402       .  A
C749        C750   1.403       .  A
C750        H757   1.084       .  S
C751        C752   1.397       .  A
C751        H758   1.084       .  S
C752        C753   1.406       .  A
C752        H759   1.083       .  S
C753        C754   1.407       .  A
C754        H760   1.084       .  S
C761        C762   1.407       .  A
C761        C766   1.403   1_655  A
C762        C763   1.402   1_655  A
C762        H771   1.083       .  S
C763        C764   1.404       .  A
C763        H772   1.083       .  S
C764        C770   1.407       .  A
C764        C765   1.414       .  A
C765        C767   1.397       .  A
C765        C766   1.396       .  A
C766        H773   1.084   1_455  S
C767        C768   1.389       .  A
C767        H774   1.084       .  S
C768        C769   1.406       .  A
C768        H775   1.083       .  S
C769        C770   1.407       .  A
C770        H776   1.084       .  S
C777        C778   1.408       .  A
C777        C782   1.407       .  A
C778        C779   1.391       .  A
C778        H787   1.083       .  S
C779        C780   1.397       .  A
C779        H788   1.084       .  S
C780        C786   1.400       .  A
C780        C781   1.414       .  A
C781        C783   1.402       .  A
C781        C782   1.407       .  A
C782        H789   1.084       .  S
C783        C784   1.399       .  A
C783        H790   1.084       .  S
C784        C785   1.409       .  A
C784        H791   1.083       .  S
C785        C786   1.404       .  A
C786        H792   1.084       .  S
C793        C794   1.405       .  A
C793        C798   1.402       .  A
C794        C795   1.404       .  A
C794        H803   1.083       .  S
C795        C796   1.405       .  A
C795        H804   1.083       .  S
C796        C802   1.411       .  A
C796        C797   1.415       .  A
C797        C799   1.397       .  A
C797        C798   1.400       .  A
C798        H805   1.085       .  S
C799        C800   1.391       .  A
C799        H806   1.084       .  S
C800        C801   1.405       .  A
C800        H807   1.084       .  S
C801        C802   1.407       .  A
C802        H808   1.084       .  S
C809        C810   1.410       .  A
C809        C814   1.408       .  A
C810        C811   1.399       .  A
C810        H819   1.083       .  S
C811        C812   1.401       .  A
C811        H820   1.084       .  S
C812        C818   1.410       .  A
C812        C813   1.416       .  A
C813        C815   1.400       .  A
C813        C814   1.409       .  A
C814        H821   1.084       .  S
C815        C816   1.396       .  A
C815        H822   1.084       .  S
C816        C817   1.407       .  A
C816        H823   1.084       .  S
C817        C818   1.406       .  A
C818        H824   1.084       .  S
C825        C826   1.408       .  A
C825        C830   1.408   1_565  A
C826        C827   1.399   1_565  A
C826        H835   1.083       .  S
C827        C828   1.402       .  A
C827        H836   1.084       .  S
C828        C834   1.409       .  A
C828        C829   1.415       .  A
C829        C831   1.401       .  A
C829        C830   1.407       .  A
C830        H837   1.084   1_545  S
C831        C832   1.397       .  A
C831        H838   1.084       .  S
C832        C833   1.406       .  A
C832        H839   1.083       .  S
C833        C834   1.405       .  A
C834        H840   1.084       .  S
C841        C842   1.408       .  A
C841        C846   1.406       .  A
C842        C843   1.397       .  A
C842        H851   1.083       .  S
C843        C844   1.400       .  A
C843        H852   1.084       .  S
C844        C850   1.408       .  A
C844        C845   1.415       .  A
C845        C847   1.401       .  A
C845        C846   1.409       .  A
C846        H853   1.084       .  S
C847        C848   1.398       .  A
C847        H854   1.084       .  S
C848        C849   1.410       .  A
C848        H855   1.083       .  S
C849        C850   1.407       .  A
C850        H856   1.084       .  S
C857        C858   1.405       .  A
C857        C862   1.407       .  A
C858        C859   1.396       .  A
C858        H867   1.083       .  S
C859        C860   1.400       .  A
C859        H868   1.084       .  S
C860        C866   1.406   1_655  A
C860        C861   1.415       .  A
C861        C863   1.403       .  A
C861        C862   1.412       .  A
C862        H869   1.084       .  S
C863        C864   1.401   1_655  A
C863        H870   1.083       .  S
C864        C865   1.408       .  A
C864        H871   1.083       .  S
C865        C866   1.407       .  A
C866        H872   1.084       .  S
C873        C874   1.405       .  A
C873        C878   1.405       .  A
C874        C875   1.401       .  A
C874        H883   1.083       .  S
C875        C876   1.403       .  A
C875        H884   1.083       .  S
C876        C882   1.410       .  A
C876        C877   1.415       .  A
C877        C879   1.400       .  A
C877        C878   1.405       .  A
C878        H885   1.085       .  S
C879        C880   1.395       .  A
C879        H886   1.084       .  S
C880        C881   1.407       .  A
C880        H887   1.084       .  S
C881        C882   1.407       .  A
C882        H888   1.084       .  S
