geometry optimzed in LAMMPS
_audit_creation_date              2020-12-01 
_audit_creation_method            'lammps2cif' 
_symmetry_space_group_name_H-M    'P1' 
_symmetry_Int_Tables_number       1 
_symmetry_cell_setting            triclinic 
loop_ 
_symmetry_equiv_pos_as_xyz 
  x,y,z 
_cell_length_a                    61.49940706 
_cell_length_b                    61.48909371468439 
_cell_length_c                    29.736161878202246 
_cell_angle_alpha                 89.94873622940513 
_cell_angle_beta                  89.97745482251776 
_cell_angle_gamma                 120.5905086126247 
loop_ 
_atom_site_label 
_atom_site_type_symbol 
_atom_site_fract_x 
_atom_site_fract_y 
_atom_site_fract_z 
_atom_site_charge 
N1          N  0.83354684  0.45338006  0.95641202    -0.27600
N2          N  0.85817783  0.46462486  0.96289129    -0.35400
C3          C  0.86271023  0.45387800  0.99805058     0.00800
C4          C  0.83983638  0.43508981  0.01493941     0.06800
C5          C  0.82169547  0.43500698  0.98731787    -0.06300
H6          H  0.88140009  0.45903186  0.00984428     0.07500
H7          H  0.80138862  0.42257978  0.98959249     0.08700
Cu8        Cu  0.88477794  0.49358479  0.92342479     0.44200
Cu9        Cu  0.81806518  0.46451688  0.90630894     0.42000
Cu10       Cu  0.86345999  0.52003446  0.83974373     0.43900
N11         N  0.90887772  0.52162609  0.87969650    -0.35000
N12         N  0.90124070  0.53178213  0.84898285    -0.29200
C13         C  0.92136282  0.54882230  0.82512250    -0.05300
C14         C  0.94264537  0.54906917  0.84128637     0.06900
C15         C  0.93395972  0.53176383  0.87619482     0.00700
H16         H  0.92045791  0.55999696  0.79783299     0.08400
H17         H  0.94498580  0.52642695  0.89686229     0.07400
N18         N  0.82451017  0.50206573  0.83422934    -0.36400
N19         N  0.80829045  0.48185673  0.85743414    -0.28600
C20         C  0.78469504  0.47485169  0.84454717    -0.03800
C21         C  0.78610385  0.49160004  0.81215001     0.04800
C22         C  0.81160380  0.50844492  0.80605501     0.02900
H23         H  0.76773937  0.45880103  0.85802484     0.08000
H24         H  0.82020543  0.52393138  0.78231300     0.06800
N25         N  0.66316632  0.47568508  0.50477765    -0.27600
N26         N  0.65224253  0.48835378  0.49154722    -0.35400
C27         C  0.64307240  0.48096348  0.44995887     0.00800
C28         C  0.64870460  0.46296051  0.43579428     0.06800
C29         C  0.66124806  0.45987921  0.47170217    -0.06300
H30         H  0.63165431  0.48708670  0.43255050     0.07500
H31         H  0.66755506  0.44637716  0.47437262     0.08700
Cu32       Cu  0.64727566  0.51295976  0.53138077     0.44200
Cu33       Cu  0.67770361  0.47885464  0.56874012     0.42000
Cu34       Cu  0.66997021  0.52189351  0.64327652     0.43900
N35         N  0.64137762  0.53445528  0.57756614    -0.35000
N36         N  0.65020415  0.53818096  0.61904723    -0.29200
C37         C  0.64103081  0.55044999  0.64245715    -0.05300
C38         C  0.62551292  0.55437034  0.61427194     0.06900
C39         C  0.62612962  0.54402245  0.57342940     0.00700
H40         H  0.64365427  0.55419994  0.67818831     0.08400
H41         H  0.61490507  0.54196157  0.54395967     0.07400
N42         N  0.68692328  0.50168017  0.66146043    -0.36400
N43         N  0.68981313  0.48611765  0.63484144    -0.28600
C44         C  0.70310304  0.47759122  0.65681572    -0.03800
C45         C  0.70867567  0.48820807  0.69930947     0.04800
C46         C  0.69820769  0.50343333  0.70095326     0.02900
H47         H  0.70951246  0.46575906  0.64196465     0.08000
H48         H  0.69962603  0.51576619  0.72813571     0.06800
N49         N  0.52647413  0.13950169  0.85217019    -0.27600
N50         N  0.51398084  0.11462341  0.84864504    -0.35400
C51         C  0.52329877  0.10787199  0.81415995     0.00800
C52         C  0.54236227  0.12945184  0.79391905     0.06800
C53         C  0.54414059  0.14923451  0.81944617    -0.06300
H54         H  0.51699214  0.08847220  0.80533732     0.07500
H55         H  0.55741186  0.16922573  0.81472659     0.08700
Cu56       Cu  0.48486364  0.09014467  0.89024200     0.44200
Cu57       Cu  0.51852029  0.15792253  0.90285309     0.42000
Cu58       Cu  0.46693090  0.11474439  0.98056463     0.43900
N59         N  0.45559845  0.06742668  0.93312412    -0.35000
N60         N  0.44870262  0.07640068  0.96702420    -0.29200
C61         C  0.42942108  0.05699859  0.98894805    -0.05300
C62         C  0.42376381  0.03471939  0.96734027     0.06900
C63         C  0.44104901  0.04215300  0.93246276     0.00700
H64         H  0.42036278  0.05894951  0.01861228     0.08400
H65         H  0.44347570  0.03008132  0.90909646     0.07400
N66         N  0.48702411  0.15381593  0.98485632    -0.36400
N67         N  0.50529948  0.16938872  0.95728925    -0.28600
C68         C  0.51323899  0.19331721  0.96988686    -0.03800
C69         C  0.49908543  0.19274440  0.00661082     0.04800
C70         C  0.48293772  0.16738877  0.01546789     0.02900
H71         H  0.52795803  0.20994849  0.95303310     0.08000
H72         H  0.46915555  0.15928868  0.04226475     0.06800
N73         N  0.56137616  0.36748085  0.24867795    -0.27600
N74         N  0.55287654  0.38322077  0.25350533    -0.35400
C75         C  0.56812527  0.40192200  0.28133665     0.00800
C76         C  0.58712375  0.39778977  0.29520463     0.06800
C77         C  0.58242679  0.37583054  0.27366932    -0.06300
H78         H  0.56514673  0.41705267  0.29181767     0.07500
H79         H  0.59332340  0.36651633  0.27619710     0.08700
Cu80       Cu  0.52014385  0.37838793  0.22553869     0.44200
Cu81       Cu  0.54301372  0.33543425  0.20879628     0.42000
Cu82       Cu  0.48224544  0.32321531  0.16143167     0.43900
N83         N  0.48558779  0.36969098  0.19998067    -0.35000
N84         N  0.47105762  0.34893209  0.17687218    -0.29200
C85         C  0.45020933  0.34908879  0.16373410    -0.05300
C86         C  0.45199938  0.37128006  0.17889003     0.06900
C87         C  0.47454760  0.38367537  0.20217200     0.00700
H88         H  0.43522610  0.33444092  0.14374012     0.08400
H89         H  0.48281898  0.40202653  0.21814368     0.07400
N90         N  0.49971444  0.30286195  0.14595148    -0.36400
N91         N  0.52118051  0.30681931  0.16354566    -0.28600
C92         C  0.52706584  0.29048534  0.14519222    -0.03800
C93         C  0.50879501  0.27593829  0.11362297     0.04800
C94         C  0.49162277  0.28417674  0.11557869     0.02900
H95         H  0.54349409  0.28941000  0.15434783     0.08000
H96         H  0.47468074  0.27745407  0.09567283     0.06800
N97         N  0.63689783  0.13050783  0.60930326    -0.27600
N98         N  0.62425048  0.10612891  0.61913913    -0.35400
C99         C  0.60694673  0.10181054  0.65085526     0.00800
C100        C  0.60884911  0.12453604  0.66208866     0.06800
C101        C  0.62794617  0.14233789  0.63484544    -0.06300
H102        H  0.59378632  0.08337938  0.66461201     0.07500
H103        H  0.63446163  0.16234767  0.63293350     0.08700
Cu104      Cu  0.63015131  0.07924612  0.58877852     0.44200
Cu105      Cu  0.66508763  0.14606995  0.56026392     0.42000
Cu106      Cu  0.67773129  0.10080205  0.50383686     0.43900
N107        N  0.63796673  0.05521908  0.55273113    -0.35000
N108        N  0.65560956  0.06316098  0.52140301    -0.29200
C109        C  0.65468841  0.04305368  0.50161344    -0.05300
C110        C  0.63561591  0.02133501  0.52170964     0.06900
C111        C  0.62531960  0.02984779  0.55375182     0.00700
H112        H  0.66629592  0.04415140  0.47334348     0.08400
H113        H  0.60881590  0.01845911  0.57432512     0.07400
N114        N  0.69576591  0.13889262  0.48851006    -0.36400
N115        N  0.69143461  0.15548627  0.50866953    -0.28600
C116        C  0.70625574  0.17833469  0.48975505    -0.03800
C117        C  0.72030912  0.17588796  0.45567478     0.04800
C118        C  0.71325832  0.15063757  0.45631526     0.02900
H119        H  0.70687401  0.19545640  0.50037688     0.08000
H120        H  0.72012403  0.14134622  0.43454677     0.06800
N121        N  0.83789863  0.33710426  0.19004306    -0.27600
N122        N  0.86228140  0.35185734  0.18169155    -0.35400
C123        C  0.86554777  0.36964008  0.15191629     0.00800
C124        C  0.84214707  0.36590683  0.14053574     0.06800
C125        C  0.82494624  0.34513892  0.16537773    -0.06300
H126        H  0.88374737  0.38462694  0.14017928     0.07500
H127        H  0.80466021  0.33707552  0.16673134     0.08700
Cu128      Cu  0.89070611  0.34917468  0.21306744     0.44200
Cu129      Cu  0.82424514  0.30828356  0.23749021     0.42000
Cu130      Cu  0.87332868  0.30352356  0.30001961     0.43900
N131        N  0.91693254  0.34620859  0.25160158    -0.35000
N132        N  0.91068381  0.32927737  0.28385065    -0.29200
C133        C  0.93185287  0.33327986  0.30462077    -0.05300
C134        C  0.95243076  0.35365966  0.28416141     0.06900
C135        C  0.94213186  0.36149637  0.25099550     0.00700
H136        H  0.93218856  0.32264380  0.33331786     0.08400
H137        H  0.95205617  0.37785957  0.22941547     0.07400
N138        N  0.83477438  0.28131154  0.31202583    -0.36400
N139        N  0.81705618  0.28270856  0.28922800    -0.28600
C140        C  0.79431651  0.26557357  0.30588252    -0.03800
C141        C  0.79778266  0.25260264  0.34065316     0.04800
C142        C  0.82375468  0.26344205  0.34393141     0.02900
H143        H  0.77650613  0.26273358  0.29344436     0.08000
H144        H  0.83405238  0.25906383  0.36822374     0.06800
N145        N  0.44335610  0.58332840  0.73755637    -0.27600
N146        N  0.45376207  0.56932367  0.74384852    -0.35400
C147        C  0.43998709  0.55103147  0.77359632     0.00800
C148        C  0.41963368  0.55323443  0.78661126     0.06800
C149        C  0.42254153  0.57418982  0.76354549    -0.06300
H150        H  0.44513551  0.53774379  0.78636567     0.07500
H151        H  0.41069361  0.58247110  0.76614957     0.08700
Cu152      Cu  0.48692568  0.57580300  0.71471222     0.44200
Cu153      Cu  0.45890385  0.61446040  0.69463464     0.42000
Cu154      Cu  0.51775427  0.62724975  0.63906916     0.43900
N155        N  0.52046767  0.58514163  0.68351350    -0.35000
N156        N  0.53222061  0.60449848  0.65578237    -0.29200
C157        C  0.55332090  0.60556531  0.64049214    -0.05300
C158        C  0.55486443  0.58591307  0.65985227     0.06900
C159        C  0.53360359  0.57321491  0.68657859     0.00700
H160        H  0.56609744  0.61910934  0.61615996     0.08400
H161        H  0.52797173  0.55642729  0.70642988     0.07400
N162        N  0.49920666  0.64672302  0.62637869    -0.36400
N163        N  0.47835178  0.64268558  0.64685017    -0.28600
C164        C  0.47202287  0.65920939  0.63081521    -0.03800
C165        C  0.48948226  0.67394158  0.59830145     0.04800
C166        C  0.50650629  0.66563146  0.59661708     0.02900
H167        H  0.45582267  0.66029825  0.64175327     0.08000
H168        H  0.52322740  0.67304686  0.57582908     0.06800
N169        N  0.35186608  0.48904802  0.01609189    -0.27600
N170        N  0.36746906  0.48050721  0.01001476    -0.35400
C171        C  0.37880443  0.48826939  0.96992321     0.00800
C172        C  0.37015712  0.50264486  0.94957319     0.06800
C173        C  0.35289853  0.50263469  0.97969472    -0.06300
H174        H  0.39274545  0.48413598  0.95687144     0.07500
H175        H  0.34192412  0.51176298  0.97554482     0.08700
Cu176      Cu  0.37334407  0.45930890  0.05662560     0.44200
Cu177      Cu  0.33085899  0.48151368  0.07476729     0.42000
Cu178      Cu  0.34013624  0.44345398  0.16159561     0.43900
N179        N  0.37800244  0.43856278  0.10591260    -0.35000
N180        N  0.36589031  0.43239232  0.14475135    -0.29200
C181        C  0.37344658  0.41886132  0.16888267    -0.05300
C182        C  0.39135705  0.41671860  0.14393191     0.06900
C183        C  0.39354525  0.42930889  0.10417344     0.00700
H184        H  0.36628145  0.41104355  0.20190068     0.08400
H185        H  0.40580821  0.43182996  0.07602763     0.07400
N186        N  0.31619605  0.45790295  0.16807808    -0.36400
N187        N  0.31288985  0.47137209  0.13695090    -0.28600
C188        C  0.29601248  0.47736442  0.15206001    -0.03800
C189        C  0.28847575  0.46750296  0.19483510     0.04800
C190        C  0.30149586  0.45507814  0.20376175     0.02900
H191        H  0.28968776  0.48820679  0.13320020     0.08000
H192        H  0.30008164  0.44437254  0.23363137     0.06800
N193        N  0.16704321  0.52025192  0.43260681    -0.27600
N194        N  0.14235071  0.51010697  0.43726660    -0.35400
C195        C  0.13771331  0.52454062  0.46473033     0.00800
C196        C  0.16045391  0.54476285  0.47860248     0.06800
C197        C  0.17877408  0.54155052  0.45750809    -0.06300
H198        H  0.11901247  0.52066946  0.47373501     0.07500
H199        H  0.19906772  0.55407246  0.45922993     0.08700
Cu200      Cu  0.11507660  0.47743787  0.40642734     0.44200
Cu201      Cu  0.18273798  0.50444751  0.39091320     0.42000
Cu202      Cu  0.13545275  0.44522613  0.33578966     0.43900
N203        N  0.09003840  0.44453062  0.37338737    -0.35000
N204        N  0.09761767  0.43260266  0.34653358    -0.29200
C205        C  0.07728652  0.41275624  0.32789226    -0.05300
C206        C  0.05585834  0.41198741  0.34444166     0.06900
C207        C  0.06466970  0.43252843  0.37298329     0.00700
H208        H  0.07804906  0.40011593  0.30352082     0.08400
H209        H  0.05353027  0.43884572  0.39077026     0.07400
N210        N  0.17412644  0.46221966  0.32721393    -0.36400
N211        N  0.19130453  0.48353344  0.34644866    -0.28600
C212        C  0.21428793  0.48945396  0.33103351    -0.03800
C213        C  0.21132019  0.47119870  0.30034194     0.04800
C214        C  0.18566052  0.45410423  0.29926648     0.02900
H215        H  0.23180060  0.50628293  0.34027676     0.08000
H216        H  0.17595646  0.43723562  0.27890698     0.06800
N217        N  0.47126813  0.81502332  0.35653231    -0.27600
N218        N  0.48234656  0.83982961  0.35256271    -0.35400
C219        C  0.46959175  0.84537067  0.32250785     0.00800
C220        C  0.44971618  0.82298461  0.30631631     0.06800
C221        C  0.45123982  0.80407967  0.32871976    -0.06300
H222        H  0.47434409  0.86433525  0.31328511     0.07500
H223        H  0.43831995  0.78388288  0.32599279     0.08700
Cu224      Cu  0.51412533  0.86502560  0.38838704     0.44200
Cu225      Cu  0.48329062  0.79781459  0.40201666     0.42000
Cu226      Cu  0.53733103  0.83917021  0.47246333     0.43900
N227        N  0.54616658  0.88668842  0.42654767    -0.35000
N228        N  0.55471260  0.87737342  0.45730090    -0.29200
C229        C  0.57505372  0.89655679  0.47730227    -0.05300
C230        C  0.57966989  0.91901103  0.45785901     0.06900
C231        C  0.56081333  0.91197744  0.42609535     0.00700
H232        H  0.58525958  0.89436665  0.50482704     0.08400
H233        H  0.55721113  0.92436830  0.40565566     0.07400
N234        N  0.51615268  0.80019275  0.47971365    -0.36400
N235        N  0.49698276  0.78525311  0.45329204    -0.28600
C236        C  0.48751074  0.76116849  0.46637646    -0.03800
C237        C  0.50108579  0.76094247  0.50314511     0.04800
C238        C  0.51919953  0.78596375  0.51063544     0.02900
H239        H  0.47158501  0.74502531  0.45076075     0.08000
H240        H  0.53358911  0.79326959  0.53645841     0.06800
N241        N  0.15986181  0.63674560  0.66233577    -0.27600
N242        N  0.13548374  0.62270526  0.65332080    -0.35400
C243        C  0.13244495  0.60902698  0.61621187     0.00800
C244        C  0.15599664  0.61465938  0.60081944     0.06800
C245        C  0.17294713  0.63214763  0.63121262    -0.06300
H246        H  0.11428695  0.59479201  0.60306702     0.07500
H247        H  0.19324582  0.64024217  0.63161926     0.08700
Cu248      Cu  0.10694090  0.61975885  0.69458244     0.44200
Cu249      Cu  0.17377254  0.65972448  0.71886644     0.42000
Cu250      Cu  0.12615938  0.65764915  0.79462910     0.43900
N251        N  0.08175792  0.61769748  0.74308070    -0.35000
N252        N  0.08875734  0.63217197  0.77919902    -0.29200
C253        C  0.06828291  0.62593298  0.80453813    -0.05300
C254        C  0.04735673  0.60603825  0.78400012     0.06900
C255        C  0.05668856  0.60161095  0.74477155     0.00700
H256        H  0.06880145  0.63512756  0.83581238     0.08400
H257        H  0.04612594  0.58721322  0.71980186     0.07400
N258        N  0.16467848  0.67855275  0.80671110    -0.36400
N259        N  0.18205312  0.67955872  0.77913384    -0.28600
C260        C  0.20500120  0.69454152  0.79732717    -0.03800
C261        C  0.20188153  0.70299208  0.83862031     0.04800
C262        C  0.17608094  0.69265847  0.84325351     0.02900
H263        H  0.22267152  0.69870828  0.78190672     0.08000
H264        H  0.16629185  0.69532567  0.87099541     0.06800
N265        N  0.35573334  0.81869814  0.11971249    -0.27600
N266        N  0.36900805  0.84315713  0.12853585    -0.35400
C267        C  0.38432173  0.84709801  0.16349910     0.00800
C268        C  0.38053467  0.82407171  0.17788763     0.06800
C269        C  0.36252531  0.80642494  0.14895644    -0.06300
H270        H  0.39764188  0.86554530  0.17697258     0.07500
H271        H  0.35486467  0.78618784  0.14927715     0.08700
Cu272      Cu  0.36667764  0.87079843  0.09326070     0.44200
Cu273      Cu  0.32902744  0.80391052  0.06827353     0.42000
Cu274      Cu  0.32096368  0.85144142  0.00661091     0.43900
N275        N  0.36172621  0.89611554  0.05554139    -0.35000
N276        N  0.34457787  0.88908156  0.02356156    -0.29200
C277        C  0.34671801  0.90983730  0.00402141    -0.05300
C278        C  0.36605635  0.93098456  0.02510895     0.06900
C279        C  0.37527921  0.92144866  0.05727164     0.00700
H280        H  0.33551411  0.90955320  0.97574838     0.08400
H281        H  0.39141454  0.93208226  0.07898655     0.07400
N282        N  0.30157219  0.81304956  0.99256965    -0.36400
N283        N  0.30423995  0.79581745  0.01457078    -0.28600
C284        C  0.28930405  0.77313020  0.99532060    -0.03800
C285        C  0.27704863  0.77634986  0.95913401     0.04800
C286        C  0.28507440  0.80182918  0.95875930     0.02900
H287        H  0.28797253  0.75566860  0.00612983     0.08000
H288        H  0.27950087  0.81158103  0.93538690     0.06800
C289        C  0.25920480  0.75684854  0.92750841    -0.06400
C290        C  0.23915666  0.73433059  0.94500533    -0.17500
C291        C  0.22068406  0.71602462  0.91676884     0.10800
C292        C  0.22191496  0.72042997  0.86988627    -0.06300
C293        C  0.24249534  0.74249279  0.85228663    -0.17600
C294        C  0.26121670  0.76054572  0.88039809     0.10800
S295        S  0.19659543  0.68718064  0.94255290    -0.32500
S296        S  0.28756036  0.78740973  0.85381679    -0.32500
H297        H  0.30565051  0.78942840  0.88510554     0.28800
H298        H  0.19446531  0.67146518  0.90641050     0.28800
H299        H  0.23771792  0.73108867  0.98097897     0.19400
H300        H  0.24388880  0.74583089  0.81634170     0.19400
C301        C  0.39466073  0.82020133  0.21415083    -0.06400
C302        C  0.40611266  0.80589590  0.20521088    -0.17500
C303        C  0.42390699  0.80605721  0.23491663     0.10800
C304        C  0.43004205  0.82046584  0.27483274    -0.06300
C305        C  0.41753388  0.83358166  0.28481223    -0.17600
C306        C  0.39966613  0.83325019  0.25545344     0.10800
S307        S  0.43947952  0.78918977  0.21824647    -0.32500
S308        S  0.38357608  0.84946295  0.27313674    -0.32500
H309        H  0.36094335  0.83340429  0.25023534     0.28800
H310        H  0.46332074  0.80699186  0.23544273     0.28800
H311        H  0.40242909  0.79586987  0.17358170     0.19400
H312        H  0.42166849  0.84413346  0.31594796     0.19400
C313        C  0.16097734  0.60096590  0.56508520    -0.06400
C314        C  0.17756003  0.59208111  0.57407181    -0.17500
C315        C  0.17865530  0.57439982  0.54577257     0.10800
C316        C  0.16321153  0.56576638  0.50703839    -0.06300
C317        C  0.14809124  0.57610907  0.49653253    -0.17600
C318        C  0.14707175  0.59376546  0.52457486     0.10800
S319        S  0.19835973  0.56206927  0.56319848    -0.32500
S320        S  0.12776873  0.60646597  0.50643979    -0.32500
H321        H  0.14241181  0.63003444  0.52753592     0.28800
H322        H  0.18116164  0.53696116  0.55085857     0.28800
H323        H  0.18838126  0.59750457  0.60498379     0.19400
H324        H  0.13667926  0.57013542  0.46627950     0.19400
C325        C  0.26926760  0.46876606  0.22295050    -0.06400
C326        C  0.24723531  0.46504993  0.20183256    -0.17500
C327        C  0.22837003  0.46625266  0.22594922     0.10800
C328        C  0.23112208  0.47073344  0.27280518    -0.06300
C329        C  0.25321040  0.47462510  0.29400061    -0.17600
C330        C  0.27235434  0.47390406  0.26962684     0.10800
S331        S  0.20195209  0.46317694  0.19427277    -0.32500
S332        S  0.30059932  0.48087957  0.29976526    -0.32500
H333        H  0.31724324  0.49476886  0.26459866     0.28800
H334        H  0.19980849  0.48151053  0.21893748     0.28800
H335        H  0.24474308  0.46135498  0.16603655     0.19400
H336        H  0.25560915  0.47834483  0.32979296     0.19400
C337        C  0.37855731  0.51510400  0.90520100    -0.06400
C338        C  0.38156653  0.50139939  0.87050995    -0.17500
C339        C  0.39265343  0.51277114  0.82958200     0.10800
C340        C  0.40173529  0.53879069  0.82323523    -0.06300
C341        C  0.39678564  0.55199465  0.85628929    -0.17600
C342        C  0.38556042  0.54055020  0.89733839     0.10800
S343        S  0.39457814  0.49296837  0.78691068    -0.32500
S344        S  0.38326274  0.56025077  0.93958956    -0.32500
H345        H  0.39264860  0.55190975  0.97455676     0.28800
H346        H  0.39363359  0.50695989  0.75028253     0.28800
H347        H  0.37554432  0.48165459  0.87559068     0.19400
H348        H  0.40357123  0.57193470  0.85172035     0.19400
C349        C  0.49083285  0.69521566  0.57293650    -0.06400
C350        C  0.49018299  0.71449654  0.59694551    -0.17500
C351        C  0.49323498  0.73604387  0.57510002     0.10800
C352        C  0.49713734  0.73849393  0.52811042    -0.06300
C353        C  0.49718755  0.71894708  0.50396295    -0.17600
C354        C  0.49402432  0.69735758  0.52574777     0.10800
S355        S  0.49140917  0.75938087  0.60892322    -0.32500
S356        S  0.49361968  0.67303978  0.49126341    -0.32500
H357        H  0.47600571  0.65270666  0.51778664     0.28800
H358        H  0.47959902  0.76622040  0.57593567     0.28800
H359        H  0.48762084  0.71291787  0.63312042     0.19400
H360        H  0.49985305  0.72058357  0.46780727     0.19400
C361        C  0.97918409  0.36655698  0.29877243    -0.06400
C362        C  0.98447173  0.36925305  0.34506649    -0.17500
C363        C  0.00930988  0.38310724  0.36097455     0.10800
C364        C  0.02948860  0.39500055  0.33004069    -0.06300
C365        C  0.02432550  0.39154785  0.28384584    -0.17600
C366        C  0.99955162  0.37732617  0.26789698     0.10800
S367        S  0.01396862  0.38442514  0.42100183    -0.32500
S368        S  0.99546991  0.37316237  0.20787477    -0.32500
H369        H  0.97473196  0.34835271  0.21022812     0.28800
H370        H  0.03721905  0.38522542  0.41911728     0.28800
H371        H  0.96911897  0.36087803  0.36916883     0.19400
H372        H  0.03972860  0.40030557  0.25987118     0.19400
C373        C  0.62504553  0.99494960  0.50626665    -0.06400
C374        C  0.62333671  0.99019769  0.45982832    -0.17500
C375        C  0.61015382  0.96552832  0.44305043     0.10800
C376        C  0.59771507  0.94499018  0.47321960    -0.06300
C377        C  0.60096140  0.94965186  0.51962890    -0.17600
C378        C  0.61475421  0.97427277  0.53641155     0.10800
S379        S  0.61020590  0.96162787  0.38295324    -0.32500
S380        S  0.61871265  0.97788470  0.59652984    -0.32500
H381        H  0.64265935  0.99995301  0.59476276     0.28800
H382        H  0.60900307  0.93817926  0.38488159     0.28800
H383        H  0.63164889  0.00581036  0.43624859     0.19400
H384        H  0.59205773  0.93405143  0.54317875     0.19400
C385        C  0.77790336  0.23239435  0.36921300    -0.06400
C386        C  0.75628101  0.23364650  0.37976122    -0.17500
C387        C  0.73694774  0.21531904  0.40679365     0.10800
C388        C  0.73956835  0.19565400  0.42570302    -0.06300
C389        C  0.76106534  0.19429102  0.41483597    -0.17600
C390        C  0.77982012  0.21191094  0.38617925     0.10800
S391        S  0.70887963  0.21731998  0.41317143    -0.32500
S392        S  0.80459393  0.20590989  0.37042193    -0.32500
H393        H  0.80544218  0.21311788  0.32524032     0.28800
H394        H  0.69207364  0.19110569  0.41004009     0.28800
H395        H  0.75422123  0.24890577  0.36641369     0.19400
H396        H  0.76314662  0.17905204  0.42824940     0.19400
C397        C  0.43492201  0.38114086  0.17002848    -0.06400
C398        C  0.43031967  0.39362585  0.20502432    -0.17500
C399        C  0.41609074  0.40526872  0.19794035     0.10800
C400        C  0.40531212  0.40368064  0.15521667    -0.06300
C401        C  0.40935956  0.39058290  0.12063963    -0.17600
C402        C  0.42441764  0.37986690  0.12718193     0.10800
S403        S  0.41426369  0.42344126  0.24373862    -0.32500
S404        S  0.43119418  0.36699349  0.07832044    -0.32500
H405        H  0.45706651  0.37788576  0.08804806     0.28800
H406        H  0.41820091  0.44388925  0.21659578     0.28800
H407        H  0.43857329  0.39504150  0.23782667     0.19400
H408        H  0.40145139  0.38944426  0.08760483     0.19400
C409        C  0.40547257  0.00846219  0.98154338    -0.06400
C410        C  0.40219694  0.00279573  0.02767090    -0.17500
C411        C  0.38783163  0.97784256  0.04292987     0.10800
C412        C  0.37727814  0.95779980  0.01149727    -0.06300
C413        C  0.37905204  0.96358984  0.96549134    -0.17600
C414        C  0.39246007  0.98860030  0.95029607     0.10800
S415        S  0.38315419  0.97302671  0.10279147    -0.32500
S416        S  0.39147194  0.99377602  0.89082506    -0.32500
H417        H  0.39235066  0.01696943  0.89570985     0.28800
H418        H  0.35886953  0.95149781  0.09960782     0.28800
H419        H  0.41131272  0.01784130  0.05214561     0.19400
H420        H  0.37037926  0.94851677  0.94096571     0.19400
C421        C  0.55872309  0.13042653  0.75621772    -0.06400
C422        C  0.58473603  0.14818931  0.75761759    -0.17500
C423        C  0.60157808  0.14711144  0.72707205     0.10800
C424        C  0.59228674  0.12795236  0.69395994    -0.06300
C425        C  0.56619649  0.11100378  0.69131211    -0.17600
C426        C  0.54935696  0.11240979  0.72104988     0.10800
S427        S  0.63473763  0.16956325  0.73431768    -0.32500
S428        S  0.51613655  0.09143880  0.71055557    -0.32500
H429        H  0.50879524  0.10847852  0.72544417     0.28800
H430        H  0.64276011  0.15231969  0.72498210     0.28800
H431        H  0.59222631  0.16218416  0.78417082     0.19400
H432        H  0.55876653  0.09675521  0.66514440     0.19400
C433        C  0.50117560  0.21450895  0.03171558    -0.06400
C434        C  0.52529596  0.23500229  0.04123488    -0.17500
C435        C  0.52848838  0.25565348  0.06643996     0.10800
C436        C  0.50707159  0.25548107  0.08452823    -0.06300
C437        C  0.48294222  0.23514895  0.07409862    -0.17600
C438        C  0.47975307  0.21512688  0.04714532     0.10800
S439        S  0.56024633  0.28205154  0.07145790    -0.32500
S440        S  0.44786196  0.19187600  0.03161589    -0.32500
H441        H  0.45409771  0.18833232  0.98776676     0.28800
H442        H  0.55331918  0.30044002  0.06566898     0.28800
H443        H  0.54185224  0.23502714  0.02866096     0.19400
H444        H  0.46627235  0.23486723  0.08670971     0.19400
C445        C  0.60744908  0.56200951  0.62794209    -0.06400
C446        C  0.61651845  0.58737040  0.63871137    -0.17500
C447        C  0.59988264  0.59567501  0.65033618     0.10800
C448        C  0.57358509  0.57829105  0.65052418    -0.06300
C449        C  0.56466112  0.55280236  0.64074803    -0.17600
C450        C  0.58128331  0.54445722  0.62985371     0.10800
S451        S  0.61344017  0.62836056  0.66606312    -0.32500
S452        S  0.56793803  0.51117780  0.61909180    -0.32500
H453        H  0.58796693  0.50948401  0.63805254     0.28800
H454        H  0.59524098  0.62393288  0.69907224     0.28800
H455        H  0.63665396  0.60075278  0.63802103     0.19400
H456        H  0.54455408  0.53930425  0.64119976     0.19400
C457        C  0.63836194  0.44691814  0.39538517    -0.06400
C458        C  0.62822817  0.42073507  0.39960900    -0.17500
C459        C  0.61247998  0.40404532  0.36632798     0.10800
C460        C  0.60706925  0.41377887  0.32759075    -0.06300
C461        C  0.61911585  0.44001369  0.32168153    -0.17600
C462        C  0.63500329  0.45663655  0.35459471     0.10800
S463        S  0.59801328  0.37072060  0.37757786    -0.32500
S464        S  0.65033084  0.48997167  0.34235899    -0.32500
H465        H  0.67165642  0.49679094  0.36929437     0.28800
H466        H  0.57366390  0.36480531  0.36428700     0.28800
H467        H  0.63084107  0.41302111  0.43056601     0.19400
H468        H  0.61567493  0.44765657  0.29140179     0.19400
C469        C  0.96915557  0.56413450  0.82555802    -0.06400
C470        C  0.98838981  0.57355109  0.85799090    -0.17500
C471        C  0.01390475  0.58683595  0.84580469     0.10800
C472        C  0.02071211  0.59197380  0.79983780    -0.06300
C473        C  0.00140462  0.58275486  0.76742359    -0.17600
C474        C  0.97589567  0.56852325  0.77958201     0.10800
S475        S  0.03639122  0.59477397  0.89067165    -0.32500
S476        S  0.95325205  0.55512317  0.73453944    -0.32500
H477        H  0.93841231  0.53156573  0.75569864     0.28800
H478        H  0.05159645  0.58777774  0.86666333     0.28800
H479        H  0.98352135  0.57000923  0.89331432     0.19400
H480        H  0.00619287  0.58620385  0.73207847     0.19400
C481        C  0.83636466  0.41757209  0.05185835    -0.06400
C482        C  0.82041793  0.39149818  0.04518802    -0.17500
C483        C  0.82103353  0.37396444  0.07453681     0.10800
C484        C  0.83771347  0.38273466  0.11159609    -0.06300
C485        C  0.85211669  0.40875291  0.11999267    -0.17600
C486        C  0.85124599  0.42617510  0.09115107     0.10800
S487        S  0.80172443  0.34095417  0.06070675    -0.32500
S488        S  0.86935178  0.45907801  0.10667932    -0.32500
H489        H  0.85311980  0.46590070  0.08591056     0.28800
H490        H  0.81985289  0.33449120  0.07257589     0.28800
H491        H  0.80877151  0.38473944  0.01529778     0.19400
H492        H  0.86434064  0.41558748  0.14918698     0.19400
C493        C  0.76495808  0.49066363  0.78728511    -0.06400
C494        C  0.74602908  0.46733661  0.77029876    -0.17500
C495        C  0.72667608  0.46567786  0.74318592     0.10800
C496        C  0.72651656  0.48792115  0.73198302    -0.06300
C497        C  0.74480196  0.51102680  0.75068380    -0.17600
C498        C  0.76374248  0.51259031  0.77861407     0.10800
S499        S  0.70258807  0.43467908  0.72491361    -0.32500
S500        S  0.78527244  0.54297264  0.80293656    -0.32500
H501        H  0.78803788  0.53324919  0.84398726     0.28800
H502        H  0.68286875  0.43997453  0.72502972     0.28800
H503        H  0.74654025  0.45032435  0.77758584     0.19400
H504        H  0.74464436  0.52817187  0.74289355     0.19400
loop_ 
_geom_bond_atom_site_label_1 
_geom_bond_atom_site_label_2 
_geom_bond_distance 
_geom_bond_site_symmetry_2 
_ccdc_geom_bond_type 
N1            N2   1.321       .  A
N1            C5   1.346       .  A
N1           Cu9   2.064       .  S
N2            C3   1.339       .  A
N2           Cu8   2.063       .  S
C3            C4   1.382   1_556  A
C3            H6   1.084   1_556  S
C4            C5   1.384   1_554  A
C4          C481   1.475       .  S
C5            H7   1.085       .  S
Cu8          N11   2.063       .  S
Cu9          N19   2.064       .  S
Cu10         N12   2.071       .  S
Cu10         N18   2.072       .  S
N11          N12   1.320       .  A
N11          C15   1.342       .  A
N12          C13   1.346       .  A
C13          C14   1.387       .  A
C13          H16   1.082       .  S
C14          C15   1.384       .  A
C14         C469   1.482       .  S
C15          H17   1.082       .  S
N18          N19   1.323       .  A
N18          C22   1.343       .  A
N19          C20   1.343       .  A
C20          C21   1.380       .  A
C20          H23   1.083       .  S
C21          C22   1.382       .  A
C21         C493   1.472       .  S
C22          H24   1.082       .  S
N25          N26   1.321       .  A
N25          C29   1.346       .  A
N25         Cu33   2.069       .  S
N26          C27   1.340       .  A
N26         Cu32   2.064       .  S
C27          C28   1.383       .  A
C27          H30   1.083       .  S
C28          C29   1.386       .  A
C28         C457   1.478       .  S
C29          H31   1.083       .  S
Cu32         N35   2.063       .  S
Cu33         N43   2.069       .  S
Cu34         N36   2.059       .  S
Cu34         N42   2.060       .  S
N35          N36   1.320       .  A
N35          C39   1.342       .  A
N36          C37   1.344       .  A
C37          C38   1.380       .  A
C37          H40   1.082       .  S
C38          C39   1.381       .  A
C38         C445   1.467       .  S
C39          H41   1.083       .  S
N42          N43   1.322       .  A
N42          C46   1.341       .  A
N43          C44   1.344       .  A
C44          C45   1.384       .  A
C44          H47   1.083       .  S
C45          C46   1.381       .  A
C45         C496   1.473       .  S
C46          H48   1.082       .  S
N49          N50   1.321       .  A
N49          C53   1.350       .  A
N49         Cu57   2.088       .  S
N50          C51   1.340       .  A
N50         Cu56   2.062       .  S
C51          C52   1.383       .  A
C51          H54   1.083       .  S
C52          C53   1.391       .  A
C52         C421   1.487       .  S
C53          H55   1.084       .  S
Cu56         N59   2.062       .  S
Cu57         N67   2.089       .  S
Cu58         N60   2.071       .  S
Cu58         N66   2.072       .  S
N59          N60   1.319       .  A
N59          C63   1.342       .  A
N60          C61   1.346       .  A
C61          C62   1.388       .  A
C61          H64   1.082   1_556  S
C62          C63   1.385       .  A
C62         C409   1.483       .  S
C63          H65   1.081       .  S
N66          N67   1.325       .  A
N66          C70   1.343   1_556  A
N67          C68   1.347       .  A
C68          C69   1.385   1_556  A
C68          H71   1.083       .  S
C69          C70   1.382       .  A
C69         C433   1.480       .  S
C70          H72   1.082       .  S
N73          N74   1.321       .  A
N73          C77   1.348       .  A
N73         Cu81   2.075       .  S
N74          C75   1.338       .  A
N74         Cu80   2.056       .  S
C75          C76   1.379       .  A
C75          H78   1.082       .  S
C76          C77   1.386       .  A
C76         C460   1.474       .  S
C77          H79   1.083       .  S
Cu80         N83   2.056       .  S
Cu81         N91   2.076       .  S
Cu82         N84   2.072       .  S
Cu82         N90   2.074       .  S
N83          N84   1.320       .  A
N83          C87   1.341       .  A
N84          C85   1.345       .  A
C85          C86   1.388       .  A
C85          H88   1.082       .  S
C86          C87   1.382       .  A
C86         C397   1.479       .  S
C87          H89   1.084       .  S
N90          N91   1.323       .  A
N90          C94   1.343       .  A
N91          C92   1.345       .  A
C92          C93   1.387       .  A
C92          H95   1.080       .  S
C93          C94   1.386       .  A
C93         C436   1.486       .  S
C94          H96   1.081       .  S
N97          N98   1.323       .  A
N97         C101   1.348       .  A
N97        Cu105   2.087       .  S
N98          C99   1.343       .  A
N98        Cu104   2.072       .  S
C99         C100   1.383       .  A
C99         H102   1.083       .  S
C100        C101   1.387       .  A
C100        C424   1.482       .  S
C101        H103   1.084       .  S
Cu104       N107   2.071       .  S
Cu105       N115   2.087       .  S
Cu106       N108   2.067       .  S
Cu106       N114   2.068       .  S
N107        N108   1.320       .  A
N107        C111   1.343       .  A
N108        C109   1.345       .  A
C109        C110   1.386       .  A
C109        H112   1.082       .  S
C110        C111   1.386       .  A
C110        C373   1.481   1_545  S
C111        H113   1.082       .  S
N114        N115   1.322       .  A
N114        C118   1.343       .  A
N115        C116   1.348       .  A
C116        C117   1.389       .  A
C116        H119   1.081       .  S
C117        C118   1.383       .  A
C117        C388   1.485       .  S
C118        H120   1.082       .  S
N121        N122   1.322       .  A
N121        C125   1.348       .  A
N121       Cu129   2.078       .  S
N122        C123   1.340       .  A
N122       Cu128   2.061       .  S
C123        C124   1.379       .  A
C123        H126   1.083       .  S
C124        C125   1.385       .  A
C124        C484   1.474       .  S
C125        H127   1.084       .  S
Cu128       N131   2.061       .  S
Cu129       N139   2.079       .  S
Cu130       N132   2.076       .  S
Cu130       N138   2.078       .  S
N131        N132   1.320       .  A
N131        C135   1.343       .  A
N132        C133   1.346       .  A
C133        C134   1.388       .  A
C133        H136   1.081       .  S
C134        C135   1.384       .  A
C134        C361   1.483       .  S
C135        H137   1.082       .  S
N138        N139   1.323       .  A
N138        C142   1.344       .  A
N139        C140   1.345       .  A
C140        C141   1.386       .  A
C140        H143   1.083       .  S
C141        C142   1.386       .  A
C141        C385   1.487       .  S
C142        H144   1.081       .  S
N145        N146   1.322       .  A
N145        C149   1.348       .  A
N145       Cu153   2.083       .  S
N146        C147   1.339       .  A
N146       Cu152   2.059       .  S
C147        C148   1.381       .  A
C147        H150   1.084       .  S
C148        C149   1.388       .  A
C148        C340   1.479       .  S
C149        H151   1.083       .  S
Cu152       N155   2.059       .  S
Cu153       N163   2.084       .  S
Cu154       N156   2.064       .  S
Cu154       N162   2.066       .  S
N155        N156   1.320       .  A
N155        C159   1.342       .  A
N156        C157   1.345       .  A
C157        C158   1.384       .  A
C157        H160   1.080       .  S
C158        C159   1.382       .  A
C158        C448   1.474       .  S
C159        H161   1.081       .  S
N162        N163   1.324       .  A
N162        C166   1.343       .  A
N163        C164   1.346       .  A
C164        C165   1.384       .  A
C164        H167   1.082       .  S
C165        C166   1.380       .  A
C165        C349   1.475       .  S
C166        H168   1.081       .  S
N169        N170   1.320       .  A
N169        C173   1.348   1_554  A
N169       Cu177   2.077       .  S
N170        C171   1.340   1_554  A
N170       Cu176   2.056       .  S
C171        C172   1.381       .  A
C171        H174   1.083       .  S
C172        C173   1.388       .  A
C172        C337   1.480       .  S
C173        H175   1.082       .  S
Cu176       N179   2.056       .  S
Cu177       N187   2.079       .  S
Cu178       N180   2.078       .  S
Cu178       N186   2.080       .  S
N179        N180   1.320       .  A
N179        C183   1.339       .  A
N180        C181   1.348       .  A
C181        C182   1.389       .  A
C181        H184   1.083       .  S
C182        C183   1.381       .  A
C182        C400   1.481       .  S
C183        H185   1.083       .  S
N186        N187   1.324       .  A
N186        C190   1.346       .  A
N187        C188   1.343       .  A
C188        C189   1.383       .  A
C188        H191   1.083       .  S
C189        C190   1.385       .  A
C189        C325   1.481       .  S
C190        H192   1.082       .  S
N193        N194   1.323       .  A
N193        C197   1.351       .  A
N193       Cu201   2.090       .  S
N194        C195   1.340       .  A
N194       Cu200   2.065       .  S
C195        C196   1.380       .  A
C195        H198   1.083       .  S
C196        C197   1.389       .  A
C196        C316   1.480       .  S
C197        H199   1.084       .  S
Cu200       N203   2.065       .  S
Cu201       N211   2.091       .  S
Cu202       N204   2.069       .  S
Cu202       N210   2.070       .  S
N203        N204   1.320       .  A
N203        C207   1.344       .  A
N204        C205   1.345       .  A
C205        C206   1.385       .  A
C205        H208   1.081       .  S
C206        C207   1.384       .  A
C206        C364   1.477       .  S
C207        H209   1.082       .  S
N210        N211   1.324       .  A
N210        C214   1.343       .  A
N211        C212   1.348       .  A
C212        C213   1.386       .  A
C212        H215   1.083       .  S
C213        C214   1.381       .  A
C213        C328   1.480       .  S
C214        H216   1.082       .  S
N217        N218   1.322       .  A
N217        C221   1.346       .  A
N217       Cu225   2.071       .  S
N218        C219   1.342       .  A
N218       Cu224   2.068       .  S
C219        C220   1.382       .  A
C219        H222   1.083       .  S
C220        C221   1.383       .  A
C220        C304   1.475       .  S
C221        H223   1.084       .  S
Cu224       N227   2.068       .  S
Cu225       N235   2.072       .  S
Cu226       N228   2.075       .  S
Cu226       N234   2.076       .  S
N227        N228   1.322       .  A
N227        C231   1.343       .  A
N228        C229   1.345       .  A
C229        C230   1.386       .  A
C229        H232   1.081       .  S
C230        C231   1.384       .  A
C230        C376   1.480       .  S
C231        H233   1.082       .  S
N234        N235   1.323       .  A
N234        C238   1.346       .  A
N235        C236   1.343       .  A
C236        C237   1.380       .  A
C236        H239   1.083       .  S
C237        C238   1.383       .  A
C237        C352   1.474       .  S
C238        H240   1.082       .  S
N241        N242   1.322       .  A
N241        C245   1.347       .  A
N241       Cu249   2.081       .  S
N242        C243   1.342       .  A
N242       Cu248   2.072       .  S
C243        C244   1.384       .  A
C243        H246   1.083       .  S
C244        C245   1.386       .  A
C244        C313   1.482       .  S
C245        H247   1.083       .  S
Cu248       N251   2.072       .  S
Cu249       N259   2.081       .  S
Cu250       N252   2.071       .  S
Cu250       N258   2.073       .  S
N251        N252   1.320       .  A
N251        C255   1.344       .  A
N252        C253   1.344       .  A
C253        C254   1.388       .  A
C253        H256   1.081       .  S
C254        C255   1.387       .  A
C254        C472   1.487       .  S
C255        H257   1.083       .  S
N258        N259   1.323       .  A
N258        C262   1.345       .  A
N259        C260   1.346       .  A
C260        C261   1.385       .  A
C260        H263   1.083       .  S
C261        C262   1.383       .  A
C261        C292   1.480       .  S
C262        H264   1.082       .  S
N265        N266   1.322       .  A
N265        C269   1.349       .  A
N265       Cu273   2.085       .  S
N266        C267   1.340       .  A
N266       Cu272   2.063       .  S
C267        C268   1.380       .  A
C267        H270   1.083       .  S
C268        C269   1.387       .  A
C268        C301   1.478       .  S
C269        H271   1.083       .  S
Cu272       N275   2.062       .  S
Cu273       N283   2.086       .  S
Cu274       N276   2.074       .  S
Cu274       N282   2.075   1_554  S
N275        N276   1.319       .  A
N275        C279   1.343       .  A
N276        C277   1.346       .  A
C277        C278   1.388       .  A
C277        H280   1.082   1_554  S
C278        C279   1.385       .  A
C278        C412   1.483       .  S
C279        H281   1.082       .  S
N282        N283   1.324   1_556  A
N282        C286   1.344       .  A
N283        C284   1.347   1_554  A
C284        C285   1.385       .  A
C284        H287   1.083   1_556  S
C285        C286   1.382       .  A
C285        C289   1.480       .  S
C286        H288   1.081       .  S
C289        C290   1.403       .  A
C289        C294   1.414       .  A
C290        C291   1.401       .  A
C290        H299   1.083       .  S
C291        C292   1.415       .  A
C291        S295   1.803       .  S
C292        C293   1.402       .  A
C293        C294   1.399       .  A
C293        H300   1.083       .  S
C294        S296   1.803       .  S
S295        H298   1.407       .  S
S296        H297   1.407       .  S
C301        C302   1.404       .  A
C301        C306   1.413       .  A
C302        C303   1.403       .  A
C302        H311   1.084       .  S
C303        C304   1.414       .  A
C303        S307   1.803       .  S
C304        C305   1.401       .  A
C305        C306   1.396       .  A
C305        H312   1.085       .  S
C306        S308   1.804       .  S
S307        H310   1.406       .  S
S308        H309   1.407       .  S
C313        C314   1.406       .  A
C313        C318   1.412       .  A
C314        C315   1.404       .  A
C314        H323   1.084       .  S
C315        C316   1.414       .  A
C315        S319   1.802       .  S
C316        C317   1.403       .  A
C317        C318   1.396       .  A
C317        H324   1.084       .  S
C318        S320   1.804       .  S
S319        H322   1.406       .  S
S320        H321   1.407       .  S
C325        C326   1.403       .  A
C325        C330   1.415       .  A
C326        C327   1.397       .  A
C326        H335   1.083       .  S
C327        C328   1.414       .  A
C327        S331   1.803       .  S
C328        C329   1.404       .  A
C329        C330   1.402       .  A
C329        H336   1.083       .  S
C330        S332   1.802       .  S
S331        H334   1.407       .  S
S332        H333   1.407       .  S
C337        C338   1.403       .  A
C337        C342   1.415       .  A
C338        C339   1.396       .  A
C338        H347   1.084       .  S
C339        C340   1.413       .  A
C339        S343   1.804       .  S
C340        C341   1.404       .  A
C341        C342   1.402       .  A
C341        H348   1.084       .  S
C342        S344   1.801       .  S
S343        H346   1.407       .  S
S344        H345   1.406       .  S
C349        C350   1.402       .  A
C349        C354   1.414       .  A
C350        C351   1.399       .  A
C350        H359   1.084       .  S
C351        C352   1.413       .  A
C351        S355   1.803       .  S
C352        C353   1.402       .  A
C353        C354   1.398       .  A
C353        H360   1.084       .  S
C354        S356   1.804       .  S
S355        H358   1.406       .  S
S356        H357   1.406       .  S
C361        C362   1.405       .  A
C361        C366   1.416       .  A
C362        C363   1.400   1_655  A
C362        H371   1.084       .  S
C363        C364   1.413       .  A
C363        S367   1.803       .  S
C364        C365   1.402       .  A
C365        C366   1.399   1_455  A
C365        H372   1.084       .  S
C366        S368   1.803       .  S
S367        H370   1.407       .  S
S368        H369   1.406       .  S
C373        C374   1.405       .  A
C373        C378   1.414       .  A
C374        C375   1.399       .  A
C374        H383   1.083   1_565  S
C375        C376   1.414       .  A
C375        S379   1.804       .  S
C376        C377   1.403       .  A
C377        C378   1.398       .  A
C377        H384   1.084       .  S
C378        S380   1.803       .  S
S379        H382   1.407       .  S
S380        H381   1.407       .  S
C385        C386   1.406       .  A
C385        C390   1.416       .  A
C386        C387   1.401       .  A
C386        H395   1.084       .  S
C387        C388   1.415       .  A
C387        S391   1.802       .  S
C388        C389   1.404       .  A
C389        C390   1.399       .  A
C389        H396   1.084       .  S
C390        S392   1.802       .  S
S391        H394   1.407       .  S
S392        H393   1.407       .  S
C397        C398   1.405       .  A
C397        C402   1.413       .  A
C398        C399   1.400       .  A
C398        H407   1.083       .  S
C399        C400   1.413       .  A
C399        S403   1.802       .  S
C400        C401   1.405       .  A
C401        C402   1.397       .  A
C401        H408   1.083       .  S
C402        S404   1.802       .  S
S403        H406   1.407       .  S
S404        H405   1.407       .  S
C409        C410   1.404   1_556  A
C409        C414   1.415   1_545  A
C410        C411   1.400   1_545  A
C410        H419   1.083       .  S
C411        C412   1.415       .  A
C411        S415   1.803       .  S
C412        C413   1.403   1_554  A
C413        C414   1.399       .  A
C413        H420   1.083       .  S
C414        S416   1.803       .  S
S415        H418   1.407       .  S
S416        H417   1.407   1_565  S
C421        C422   1.406       .  A
C421        C426   1.416       .  A
C422        C423   1.404       .  A
C422        H431   1.084       .  S
C423        C424   1.415       .  A
C423        S427   1.802       .  S
C424        C425   1.402       .  A
C425        C426   1.397       .  A
C425        H432   1.084       .  S
C426        S428   1.804       .  S
S427        H430   1.406       .  S
S428        H429   1.407       .  S
C433        C434   1.402       .  A
C433        C438   1.414       .  A
C434        C435   1.400       .  A
C434        H443   1.084       .  S
C435        C436   1.418       .  A
C435        S439   1.802       .  S
C436        C437   1.405       .  A
C437        C438   1.397       .  A
C437        H444   1.083       .  S
C438        S440   1.803       .  S
S439        H442   1.407       .  S
S440        H441   1.407   1_554  S
C445        C446   1.400       .  A
C445        C450   1.411       .  A
C446        C447   1.400       .  A
C446        H455   1.083       .  S
C447        C448   1.414       .  A
C447        S451   1.803       .  S
C448        C449   1.403       .  A
C449        C450   1.395       .  A
C449        H456   1.083       .  S
C450        S452   1.804       .  S
S451        H454   1.407       .  S
S452        H453   1.406       .  S
C457        C458   1.405       .  A
C457        C462   1.413       .  A
C458        C459   1.401       .  A
C458        H467   1.084       .  S
C459        C460   1.413       .  A
C459        S463   1.801       .  S
C460        C461   1.402       .  A
C461        C462   1.394       .  A
C461        H468   1.085       .  S
C462        S464   1.804       .  S
S463        H466   1.406       .  S
S464        H465   1.407       .  S
C469        C470   1.403       .  A
C469        C474   1.414       .  A
C470        C471   1.398   1_655  A
C470        H479   1.083       .  S
C471        C472   1.417       .  A
C471        S475   1.802       .  S
C472        C473   1.406       .  A
C473        C474   1.400   1_455  A
C473        H480   1.083       .  S
C474        S476   1.802       .  S
S475        H478   1.407       .  S
S476        H477   1.407       .  S
C481        C482   1.404       .  A
C481        C486   1.411       .  A
C482        C483   1.402       .  A
C482        H491   1.083       .  S
C483        C484   1.413       .  A
C483        S487   1.802       .  S
C484        C485   1.402       .  A
C485        C486   1.394       .  A
C485        H492   1.084       .  S
C486        S488   1.804       .  S
S487        H490   1.406       .  S
S488        H489   1.407       .  S
C493        C494   1.404       .  A
C493        C498   1.411       .  A
C494        C495   1.398       .  A
C494        H503   1.084       .  S
C495        C496   1.412       .  A
C495        S499   1.803       .  S
C496        C497   1.403       .  A
C497        C498   1.394       .  A
C497        H504   1.084       .  S
C498        S500   1.803       .  S
S499        H502   1.407       .  S
S500        H501   1.407       .  S
