geometry optimzed in LAMMPS
_audit_creation_date              2020-12-01 
_audit_creation_method            'lammps2cif' 
_symmetry_space_group_name_H-M    'P1' 
_symmetry_Int_Tables_number       1 
_symmetry_cell_setting            triclinic 
loop_ 
_symmetry_equiv_pos_as_xyz 
  x,y,z 
_cell_length_a                    66.60748635 
_cell_length_b                    66.58196291397586 
_cell_length_c                    36.90283055038705 
_cell_angle_alpha                 89.99859410442014 
_cell_angle_beta                  89.9953969244623 
_cell_angle_gamma                 90.14597914947652 
loop_ 
_atom_site_label 
_atom_site_type_symbol 
_atom_site_fract_x 
_atom_site_fract_y 
_atom_site_fract_z 
_atom_site_charge 
O1          O  0.83115291  0.37575327  0.43536842    -0.79500
O2          O  0.92333245  0.37722204  0.41305363    -0.64200
O3          O  0.86912161  0.35964813  0.42295298    -1.10800
C4          C  0.88268640  0.37005732  0.54844166     1.07400
O5          O  0.93331588  0.35647466  0.45629296    -0.77400
O6          O  0.90764740  0.33576586  0.50036610    -0.65000
Ni7        Ni  0.84829120  0.37143534  0.39432466     1.34900
C8          C  0.89098406  0.32698348  0.49502687     0.86100
O9          O  0.89609864  0.36465036  0.36525086    -0.77900
O10         O  0.86346237  0.36792346  0.35050256    -0.88200
C11         C  0.93705937  0.36753878  0.42901134     0.85700
O12         O  0.85656996  0.39876437  0.39784059    -0.66400
O13         O  0.90123138  0.36936416  0.53993759    -0.85700
C14         C  0.87357056  0.40686342  0.40264778     0.86500
C15         C  0.88185424  0.36539638  0.34227004     1.08100
H16         H  0.89449462  0.38754147  0.47240913     0.39900
O17         O  0.89483936  0.37326476  0.46778692    -1.08400
O18         O  0.87543744  0.33576852  0.48278666    -0.65000
Ni19       Ni  0.86812453  0.36349849  0.47446063     1.26300
O20         O  0.88949061  0.39703606  0.40918021    -0.65200
O21         O  0.86821051  0.36800870  0.52600420    -0.77500
C22         C  0.82699744  0.36268339  0.45913923     0.85900
O23         O  0.84076077  0.35437970  0.47758134    -0.64700
Ni24       Ni  0.91616158  0.36313499  0.49690375     1.27400
Ni25       Ni  0.89596722  0.36905674  0.41660190     1.26100
H26         H  0.86899652  0.34542431  0.41785591     0.40500
O27         O  0.83218041  0.37804399  0.93873929    -0.79500
O28         O  0.92281674  0.37718085  0.91094772    -0.64200
O29         O  0.86871594  0.36012958  0.92419818    -1.10800
C30         C  0.88462379  0.37006542  0.04866125     1.07400
O31         O  0.93340424  0.35602463  0.95309305    -0.77400
O32         O  0.90791057  0.33489922  0.99682341    -0.65000
Ni33       Ni  0.84749950  0.37180167  0.89639634     1.34900
C34         C  0.89062933  0.32698979  0.99423694     0.86100
O35         O  0.89437872  0.36526058  0.86444000    -0.77900
O36         O  0.86126777  0.36643755  0.85184510    -0.88200
C37         C  0.93681370  0.36762583  0.92640522     0.85700
O38         O  0.85656678  0.39894406  0.89574197    -0.66400
O39         O  0.90288107  0.36779234  0.03912573    -0.85700
C40         C  0.87348708  0.40702735  0.90140052     0.86500
C41         C  0.87959446  0.36486936  0.84244198     1.08100
H42         H  0.89581860  0.38746912  0.97230910     0.39900
O43         O  0.89550929  0.37321625  0.96742798    -1.08400
O44         O  0.87498653  0.33656577  0.98469874    -0.65000
Ni45       Ni  0.86859602  0.36443290  0.97570223     1.26300
O46         O  0.88915285  0.39726362  0.90980150    -0.65200
O47         O  0.86966530  0.36944091  0.02701017    -0.77500
C48         C  0.82749066  0.36492335  0.96199832     0.85900
O49         O  0.84100106  0.35624034  0.98041981    -0.64700
Ni50       Ni  0.91699469  0.36210798  0.99492559     1.27400
Ni51       Ni  0.89547582  0.36922990  0.91607842     1.26100
H52         H  0.86840237  0.34586079  0.91954791     0.40500
O53         O  0.83094130  0.13381847  0.19094286    -0.79500
O54         O  0.92202204  0.13406043  0.22181106    -0.64200
O55         O  0.86781849  0.15074447  0.20822676    -1.10800
C56         C  0.88470195  0.14354482  0.08339955     1.07400
O57         O  0.93277894  0.15563918  0.18049051    -0.77400
O58         O  0.90794216  0.17692640  0.13616148    -0.65000
Ni59       Ni  0.84636298  0.13814422  0.23411079     1.34900
C60         C  0.89099103  0.18521243  0.14052811     0.86100
O61         O  0.89311214  0.14537865  0.26800310    -0.77900
O62         O  0.86001975  0.14178456  0.27944035    -0.88200
C63         C  0.93611081  0.14380956  0.20681882     0.85700
O64         O  0.85533210  0.11104117  0.23122022    -0.66400
O65         O  0.90298383  0.14431108  0.09353172    -0.85700
C66         C  0.87257215  0.10334312  0.22762956     0.86500
C67         C  0.87813069  0.14445203  0.28950645     1.08100
H68         H  0.89485466  0.12429538  0.15937340     0.39900
O69         O  0.89485733  0.13848529  0.16484146    -1.08400
O70         O  0.87528985  0.17589404  0.15078069    -0.65000
Ni71       Ni  0.86816439  0.14794263  0.15649766     1.26300
O72         O  0.88841846  0.11355191  0.22200370    -0.65200
O73         O  0.86962682  0.14466132  0.10472044    -0.77500
C74         C  0.82680461  0.14777063  0.16891576     0.85900
O75         O  0.84074066  0.15673584  0.15182671    -0.64700
Ni76       Ni  0.91673322  0.14967059  0.13816601     1.27400
Ni77       Ni  0.89458844  0.14178393  0.21639832     1.26100
H78         H  0.86734525  0.16485136  0.21419155     0.40500
O79         O  0.83297305  0.13360061  0.69883494    -0.79500
O80         O  0.92497952  0.13187474  0.71701002    -0.64200
O81         O  0.87095893  0.15029560  0.70955494    -1.10800
C82         C  0.88213253  0.14058811  0.58348984     1.07400
O83         O  0.93535777  0.15191245  0.67283840    -0.77400
O84         O  0.90892916  0.17418850  0.63228301    -0.65000
Ni85       Ni  0.85038215  0.13867930  0.73916269     1.34900
C86         C  0.89219357  0.18289994  0.63701265     0.86100
O87         O  0.89857548  0.14484014  0.76611223    -0.77900
O88         O  0.86597270  0.14295500  0.78215293    -0.88200
C89         C  0.93894810  0.14073364  0.70006643     0.85700
O90         O  0.85851210  0.11130061  0.73678142    -0.66400
O91         O  0.90080532  0.14162739  0.59093641    -0.85700
C92         C  0.87516295  0.10298353  0.73013506     0.86500
C93         C  0.88452970  0.14500904  0.78959536     1.08100
H94         H  0.89525819  0.12229600  0.65863080     0.39900
O95         O  0.89581201  0.13655199  0.66340455    -1.08400
O96         O  0.87648859  0.17410219  0.64889907    -0.65000
Ni97       Ni  0.86897496  0.14643542  0.65821664     1.26300
O98         O  0.89097580  0.11261969  0.72181695    -0.65200
O99         O  0.86804719  0.14188680  0.60683151    -0.77500
C100        C  0.82805186  0.14670005  0.67569990     0.85900
O101        O  0.84140856  0.15548879  0.65676864    -0.64700
Ni102      Ni  0.91683633  0.14661388  0.63330602     1.27400
Ni103      Ni  0.89774619  0.14056056  0.71462465     1.26100
H104        H  0.87113292  0.16452706  0.71460764     0.40500
O105        O  0.34967864  0.44074868  0.08079739    -0.79500
O106        O  0.34512218  0.34779298  0.10309467    -0.64200
O107        O  0.36501408  0.40170726  0.09393955    -1.10800
C108        C  0.35896863  0.38807614  0.96811569     1.07400
O109        O  0.36748088  0.33818152  0.06276603    -0.77400
O110        O  0.39095080  0.36268791  0.02440648    -0.65000
Ni111      Ni  0.35460972  0.42336874  0.12196502     1.34900
C112        C  0.39939223  0.37943509  0.03006556     0.86100
O113        O  0.35824276  0.37528370  0.15199684    -0.77900
O114        O  0.35917631  0.40837044  0.16560289    -0.88200
C115        C  0.35384392  0.33396824  0.08538970     0.85700
O116        O  0.32699638  0.41547712  0.12269661    -0.66400
O117        O  0.36044960  0.36962097  0.97676816    -0.85700
C118        C  0.31812417  0.39881307  0.11771781     0.86500
C119        C  0.35971712  0.38985368  0.17436249     1.08100
H120        H  0.33768460  0.37627281  0.04268202     0.39900
O121        O  0.35180529  0.37606207  0.04860607    -1.08400
O122        O  0.38990200  0.39549161  0.03710693    -0.65000
Ni123      Ni  0.36197039  0.40264852  0.04246737     1.26300
O124        O  0.32694451  0.38293133  0.10700704    -0.65200
O125        O  0.35872823  0.40252830  0.99077249    -0.77500
C126        C  0.36142215  0.44395978  0.05421265     0.85900
O127        O  0.37089697  0.42980850  0.03904827    -0.64700
Ni128      Ni  0.36353117  0.35480318  0.02099571     1.27400
Ni129      Ni  0.35467075  0.37512172  0.10028737     1.26100
H130        H  0.37916371  0.40115971  0.09958680     0.40500
O131        O  0.34762975  0.44081483  0.57935992    -0.79500
O132        O  0.34590282  0.34826094  0.60602376    -0.64200
O133        O  0.36414157  0.40237117  0.59263449    -1.10800
C134        C  0.35458369  0.38668448  0.46821623     1.07400
O135        O  0.36746984  0.33870971  0.56427344    -0.77400
O136        O  0.38891880  0.36305287  0.52169530    -0.65000
Ni137      Ni  0.35401717  0.42413438  0.62074838     1.34900
C138        C  0.39712054  0.38005098  0.52597871     0.86100
O139        O  0.35969096  0.37657882  0.65232476    -0.77900
O140        O  0.35995322  0.40981005  0.66463751    -0.88200
C141        C  0.35462439  0.33445564  0.58834762     0.85700
O142        O  0.32665224  0.41573015  0.62402463    -0.66400
O143        O  0.35658344  0.36837565  0.47753449    -0.85700
C144        C  0.31809511  0.39878723  0.62077272     0.86500
C145        C  0.36122460  0.39142583  0.67403467     1.08100
H146        H  0.33596130  0.37560194  0.54522738     0.39900
O147        O  0.35024169  0.37579812  0.54977097    -1.08400
O148        O  0.38746671  0.39590890  0.53371700    -0.65000
Ni149      Ni  0.35955539  0.40246940  0.54146266     1.26300
O150        O  0.32699616  0.38293626  0.61015876    -0.65200
O151        O  0.35481646  0.40146522  0.49018408    -0.77500
C152        C  0.35853866  0.44389335  0.55161762     0.85900
O153        O  0.36771863  0.42972970  0.53592772    -0.64700
Ni154      Ni  0.36162547  0.35441058  0.52206158     1.27400
Ni155      Ni  0.35465399  0.37567823  0.60109925     1.26100
H156        H  0.37844706  0.40223302  0.59692930     0.40500
O157        O  0.14571535  0.44199031  0.30804554    -0.79500
O158        O  0.14720964  0.34954086  0.27941071    -0.64200
O159        O  0.12956061  0.40374740  0.29285745    -1.10800
C160        C  0.13946130  0.38748558  0.41758501     1.07400
O161        O  0.12547748  0.34066924  0.32127846    -0.77400
O162        O  0.10532576  0.36391462  0.36700905    -0.65000
Ni163      Ni  0.14024237  0.42562157  0.26578731     1.34900
C164        C  0.09643708  0.38022115  0.35998425     0.86100
O165        O  0.13383386  0.37819480  0.23310096    -0.77900
O166        O  0.13514511  0.41150173  0.22128925    -0.88200
C167        C  0.13826324  0.33597426  0.29747978     0.85700
O168        O  0.16765457  0.41728127  0.26370278    -0.66400
O169        O  0.13899443  0.36912630  0.40792368    -0.85700
C170        C  0.17579755  0.40008201  0.26495614     0.86500
C171        C  0.13334087  0.39319789  0.21153866     1.08100
H172        H  0.15761566  0.37752575  0.34014458     0.39900
O173        O  0.14332481  0.37726046  0.33573027    -1.08400
O174        O  0.10547696  0.39610620  0.34999411    -0.65000
Ni175      Ni  0.13335821  0.40358902  0.34426396     1.26300
O176        O  0.16659123  0.38415115  0.27460154    -0.65200
O177        O  0.13734119  0.40232670  0.39598341    -0.77500
C178        C  0.13385165  0.44498461  0.33452829     0.85900
O179        O  0.12458038  0.43063934  0.34971107    -0.64700
Ni180      Ni  0.13261100  0.35558561  0.36362692     1.27400
Ni181      Ni  0.13886443  0.37709112  0.28431263     1.26100
H182        H  0.11532538  0.40371962  0.28785179     0.40500
O183        O  0.14643086  0.44134345  0.80391167    -0.79500
O184        O  0.14708932  0.34783551  0.78223298    -0.64200
O185        O  0.12984654  0.40252231  0.79194689    -1.10800
C186        C  0.13814997  0.38876762  0.91758542     1.07400
O187        O  0.12526565  0.33920968  0.82417309    -0.77400
O188        O  0.10394634  0.36449237  0.86475203    -0.65000
Ni189      Ni  0.14112585  0.42360985  0.76331932     1.34900
C190        C  0.09590852  0.38134556  0.85856740     0.86100
O191        O  0.13413894  0.37550129  0.73396965    -0.77900
O192        O  0.13638397  0.40841267  0.71981595    -0.88200
C193        C  0.13835652  0.33441682  0.80094122     0.85700
O194        O  0.16839956  0.41490034  0.76391059    -0.66400
O195        O  0.13613392  0.37030947  0.90927080    -0.85700
C196        C  0.17634675  0.39772130  0.76740293     0.86500
C197        C  0.13410833  0.38998229  0.71132525     1.08100
H198        H  0.15708681  0.37628246  0.84159099     0.39900
O199        O  0.14284185  0.37646950  0.83672777    -1.08400
O200        O  0.10573684  0.39701902  0.85003399    -0.65000
Ni201      Ni  0.13379439  0.40336666  0.84328830     1.26300
O202        O  0.16668329  0.38200943  0.77660460    -0.65200
O203        O  0.13793798  0.40316739  0.89480588    -0.77500
C204        C  0.13536007  0.44474671  0.83131489     0.85900
O205        O  0.12587134  0.43078975  0.84718864    -0.64700
Ni206      Ni  0.13109658  0.35562080  0.86551384     1.27400
Ni207      Ni  0.13878741  0.37545981  0.78532128     1.26100
H208        H  0.11560955  0.40265646  0.78696159     0.40500
O209        O  0.16446574  0.63409904  0.43932654    -0.79500
O210        O  0.07356099  0.63373356  0.41162212    -0.64200
O211        O  0.12764799  0.65142423  0.42376946    -1.10800
C212        C  0.11218904  0.64324237  0.54871948     1.07400
O213        O  0.06277157  0.65500044  0.45337008    -0.77400
O214        O  0.08813123  0.67696581  0.49616085    -0.65000
Ni215      Ni  0.14893759  0.63936572  0.39674554     1.34900
C216        C  0.10517738  0.68526371  0.49247995     0.86100
O217        O  0.10190716  0.64562068  0.36460270    -0.77900
O218        O  0.13501501  0.64385543  0.35203210    -0.88200
C219        C  0.05941135  0.64303449  0.42719708     0.85700
O220        O  0.14012285  0.61214224  0.39806380    -0.66400
O221        O  0.09383314  0.64461008  0.53928305    -0.85700
C222        C  0.12319442  0.60408344  0.40372838     0.86500
C223        C  0.11671483  0.64576066  0.34264254     1.08100
H224        H  0.10112370  0.62444695  0.47318728     0.39900
O225        O  0.10110760  0.63864194  0.46777030    -1.08400
O226        O  0.12094394  0.67597011  0.48263603    -0.65000
Ni227      Ni  0.12791079  0.64808068  0.47538152     1.26300
O228        O  0.10740352  0.61394571  0.41093229    -0.65200
O229        O  0.12705804  0.64410483  0.52692857    -0.77500
C230        C  0.16906100  0.64762984  0.46188974     0.85900
O231        O  0.15544717  0.65674705  0.47941397    -0.64700
Ni232      Ni  0.07947925  0.64959876  0.49513184     1.27400
Ni233      Ni  0.10091188  0.64202559  0.41628435     1.26100
H234        H  0.12788729  0.66559905  0.41824904     0.40500
O235        O  0.16380921  0.63528236  0.93737404    -0.79500
O236        O  0.07311345  0.63189046  0.91233072    -0.64200
O237        O  0.12648193  0.65152951  0.92342873    -1.10800
C238        C  0.11223529  0.64182029  0.04853182     1.07400
O239        O  0.06211915  0.65305748  0.95414937    -0.77400
O240        O  0.08690707  0.67528577  0.99800638    -0.65000
Ni241      Ni  0.14798951  0.64079385  0.89528159     1.34900
C242        C  0.10367403  0.68413225  0.99416345     0.86100
O243        O  0.10060955  0.64482368  0.86480629    -0.77900
O244        O  0.13362797  0.64566466  0.85114455    -0.88200
C245        C  0.05890915  0.64124102  0.92764469     0.85700
O246        O  0.14023591  0.61321205  0.89476176    -0.66400
O247        O  0.09374519  0.64255116  0.03956874    -0.85700
C248        C  0.12390855  0.60422708  0.90162378     0.86500
C249        C  0.11513169  0.64632975  0.84241827     1.08100
H250        H  0.10132597  0.62333892  0.97306331     0.39900
O251        O  0.10080935  0.63754342  0.96782259    -1.08400
O252        O  0.11955064  0.67542582  0.98319512    -0.65000
Ni253      Ni  0.12728207  0.64780786  0.97496024     1.26300
O254        O  0.10786235  0.61323258  0.91064863    -0.65200
O255        O  0.12689741  0.64343390  0.02640400    -0.77500
C256        C  0.16822807  0.64870302  0.96026821     0.85900
O257        O  0.15454118  0.65725539  0.97850772    -0.64700
Ni258      Ni  0.07903561  0.64766101  0.99573751     1.27400
Ni259      Ni  0.10016400  0.64105263  0.91642825     1.26100
H260        H  0.12601290  0.66575139  0.91833959     0.40500
O261        O  0.16553162  0.87449117  0.19881200    -0.79500
O262        O  0.07350105  0.87635632  0.22618177    -0.64200
O263        O  0.12748577  0.85877203  0.21380797    -1.10800
C264        C  0.11213509  0.86832108  0.08883186     1.07400
O265        O  0.06250219  0.85567147  0.18352426    -0.77400
O266        O  0.08750836  0.83437164  0.13901703    -0.65000
Ni267      Ni  0.14878774  0.87115203  0.24072113     1.34900
C268        C  0.10427681  0.82568621  0.14326746     0.86100
O269        O  0.10147820  0.86410133  0.27281662    -0.77900
O270        O  0.13422712  0.86870451  0.28546790    -0.88200
C271        C  0.05936696  0.86687521  0.21086510     0.85700
O272        O  0.14058582  0.89837591  0.23534195    -0.66400
O273        O  0.09370705  0.86754014  0.09813618    -0.85700
C274        C  0.12341269  0.90626070  0.23208458     0.86500
C275        C  0.11607298  0.86577695  0.29493673     1.08100
H276        H  0.10143360  0.88634039  0.16511042     0.39900
O277        O  0.10107966  0.87209272  0.17002055    -1.08400
O278        O  0.12003279  0.83453489  0.15460762    -0.65000
Ni279      Ni  0.12763214  0.86226809  0.16220747     1.26300
O280        O  0.10735505  0.89620091  0.22787299    -0.65200
O281        O  0.12687760  0.86654238  0.11069374    -0.77500
C282        C  0.16896694  0.86117192  0.17515898     0.85900
O283        O  0.15474936  0.85292524  0.15777749    -0.64700
Ni284      Ni  0.07928014  0.86180765  0.14204565     1.27400
Ni285      Ni  0.10075510  0.86816084  0.22135231     1.26100
H286        H  0.12774423  0.84459287  0.21930900     0.40500
O287        O  0.16213630  0.87569109  0.70152518    -0.79500
O288        O  0.07034244  0.87550344  0.72514157    -0.64200
O289        O  0.12457169  0.85860449  0.71407973    -1.10800
C290        C  0.11054231  0.87009201  0.58911466     1.07400
O291        O  0.06035306  0.85498606  0.68143406    -0.77400
O292        O  0.08601270  0.83489784  0.63662823    -0.65000
Ni293      Ni  0.14546463  0.87033376  0.74273037     1.34900
C294        C  0.10286960  0.82643343  0.64108711     0.86100
O295        O  0.09789875  0.86302124  0.77255946    -0.77900
O296        O  0.13069404  0.86589926  0.78661309    -0.88200
C297        C  0.05660328  0.86598033  0.70877355     0.85700
O298        O  0.13686981  0.89755040  0.74089412    -0.66400
O299        O  0.09202910  0.86881076  0.59768214    -0.85700
C300        C  0.11987193  0.90553542  0.73599740     0.86500
C301        C  0.11234587  0.86345770  0.79522678     1.08100
H302        H  0.09873573  0.88658692  0.66572335     0.39900
O303        O  0.09857274  0.87227269  0.66998889    -1.08400
O304        O  0.11837418  0.83536056  0.65329885    -0.65000
Ni305      Ni  0.12535897  0.86306468  0.66271458     1.26300
O306        O  0.10403038  0.89564563  0.72889442    -0.65200
O307        O  0.12508591  0.86821523  0.61141412    -0.77500
C308        C  0.16645840  0.86301362  0.67725192     0.85900
O309        O  0.15279273  0.85446271  0.65889004    -0.64700
Ni310      Ni  0.07727791  0.86210074  0.64076774     1.27400
Ni311      Ni  0.09771230  0.86766111  0.72112783     1.26100
H312        H  0.12479915  0.84432483  0.71865809     0.40500
O313        O  0.64732191  0.56730738  0.08290275    -0.79500
O314        O  0.64686862  0.66065449  0.10314997    -0.64200
O315        O  0.62999143  0.60567154  0.09348985    -1.10800
C316        C  0.63998960  0.61910962  0.96801890     1.07400
O317        O  0.62503693  0.66812055  0.06071403    -0.77400
O318        O  0.60483049  0.64279440  0.01854108    -0.65000
Ni319      Ni  0.64031476  0.58467584  0.12309529     1.34900
C320        C  0.59675770  0.62594956  0.02501792     0.86100
O321        O  0.63351165  0.63277966  0.15160969    -0.77900
O322        O  0.63380496  0.59975349  0.16587701    -0.88200
C323        C  0.63802624  0.67363816  0.08359941     0.85700
O324        O  0.66742697  0.59378070  0.12654757    -0.66400
O325        O  0.63797842  0.63757391  0.97620171    -0.85700
C326        C  0.67564747  0.61085979  0.12278098     0.86500
C327        C  0.63220524  0.61827804  0.17419797     1.08100
H328        H  0.65777963  0.63191358  0.04472396     0.39900
O329        O  0.64347944  0.63157248  0.04900336    -1.08400
O330        O  0.60657882  0.61047389  0.03444534    -0.65000
Ni331      Ni  0.63465900  0.60458234  0.04231577     1.26300
O332        O  0.66657934  0.62631979  0.11070450    -0.65200
O333        O  0.63939976  0.60470196  0.99083329    -0.77500
C334        C  0.63652802  0.56335543  0.05535321     0.85900
O335        O  0.62710600  0.57699597  0.03857675    -0.64700
Ni336      Ni  0.63189601  0.65212400  0.01955798     1.27400
Ni337      Ni  0.63880796  0.63277709  0.10032126     1.26100
H338        H  0.61567525  0.60559661  0.09767494     0.40500
O339        O  0.64699821  0.56887018  0.58025156    -0.79500
O340        O  0.65134168  0.66051623  0.60457148    -0.64200
O341        O  0.63066680  0.60713779  0.59386580    -1.10800
C342        C  0.63612568  0.62182613  0.46861438     1.07400
O343        O  0.62852084  0.67076908  0.56560443    -0.77400
O344        O  0.60414213  0.64638747  0.52806235    -0.65000
Ni345      Ni  0.64044590  0.58522522  0.62182228     1.34900
C346        C  0.59606819  0.62926283  0.53156513     0.86100
O347        O  0.63816619  0.63262320  0.65300498    -0.77900
O348        O  0.63427765  0.59957772  0.66542856    -0.88200
C349        C  0.64273056  0.67459067  0.58735096     0.85700
O350        O  0.66789308  0.59327164  0.62617186    -0.66400
O351        O  0.63372957  0.64008074  0.47806352    -0.85700
C352        C  0.67724353  0.60946620  0.61948622     0.86500
C353        C  0.63502846  0.61800351  0.67478236     1.08100
H354        H  0.65787857  0.63325032  0.54292725     0.39900
O355        O  0.64381117  0.63314997  0.54927226    -1.08400
O356        O  0.60596262  0.61321007  0.53653500    -0.65000
Ni357      Ni  0.63400530  0.60653766  0.54239295     1.26300
O358        O  0.66896831  0.62509023  0.60644565    -0.65200
O359        O  0.63747581  0.60716813  0.49074158    -0.77500
C360        C  0.63530357  0.56533246  0.55379006     0.85900
O361        O  0.62561651  0.57926045  0.53838854    -0.64700
Ni362      Ni  0.63146962  0.65452532  0.52299261     1.27400
Ni363      Ni  0.64134555  0.63342762  0.60107758     1.26100
H364        H  0.61649055  0.60790254  0.59919883     0.40500
O365        O  0.85029250  0.56811784  0.30236409    -0.79500
O366        O  0.84738148  0.66138917  0.27811389    -0.64200
O367        O  0.86585877  0.60711698  0.28850459    -1.10800
C368        C  0.85883345  0.62224173  0.41399679     1.07400
O369        O  0.87036673  0.67028015  0.31771363    -0.77400
O370        O  0.89245210  0.64601426  0.35943826    -0.65000
Ni371      Ni  0.85464744  0.58551492  0.26102129     1.34900
C372        C  0.90056135  0.62912506  0.35385286     0.86100
O373        O  0.85979000  0.63343184  0.22979199    -0.77900
O374        O  0.85842265  0.60033012  0.21684861    -0.88200
C375        C  0.85657127  0.67496118  0.29576265     0.85700
O376        O  0.82718534  0.59362159  0.26245966    -0.66400
O377        O  0.86062270  0.64061333  0.40486232    -0.85700
C378        C  0.81885780  0.61061605  0.26610135     0.86500
C379        C  0.85989506  0.61872223  0.20762903     1.08100
H380        H  0.83901205  0.63345791  0.33882482     0.39900
O381        O  0.85315685  0.63338271  0.33308109    -1.08400
O382        O  0.89074389  0.61338518  0.34569661    -0.65000
Ni383      Ni  0.86265308  0.60674943  0.34011340     1.26300
O384        O  0.82826773  0.62660828  0.27468587    -0.65200
O385        O  0.85908699  0.60752483  0.39182870    -0.77500
C386        C  0.86179317  0.56525312  0.32936720     0.85900
O387        O  0.87105797  0.57955344  0.34459532    -0.64700
Ni388      Ni  0.86517740  0.65467458  0.36028029     1.27400
Ni389      Ni  0.85619203  0.63390507  0.28143901     1.26100
H390        H  0.88002553  0.60726245  0.28289881     0.40500
O391        O  0.85117509  0.56872011  0.79999053    -0.79500
O392        O  0.84755013  0.66117391  0.77712265    -0.64200
O393        O  0.86726461  0.60756112  0.78863108    -1.10800
C394        C  0.85730818  0.62172259  0.91338407     1.07400
O395        O  0.86928280  0.67085569  0.81850394    -0.77400
O396        O  0.89170718  0.64647441  0.85905350    -0.65000
Ni397      Ni  0.85791702  0.58584824  0.75942069     1.34900
C398        C  0.89991415  0.62949966  0.85505813     0.86100
O399        O  0.86185102  0.63373150  0.72962039    -0.77900
O400        O  0.86422114  0.60070500  0.71632408    -0.88200
C401        C  0.85586082  0.67500954  0.79546181     0.85700
O402        O  0.83047035  0.59368472  0.75504327    -0.66400
O403        O  0.85992624  0.64006557  0.90466372    -0.85700
C404        C  0.82130323  0.61012150  0.76008010     0.86500
C405        C  0.86436615  0.61921596  0.70749421     1.08100
H406        H  0.83862633  0.63338261  0.83711932     0.39900
O407        O  0.85288458  0.63336511  0.83235455    -1.08400
O408        O  0.89021009  0.61350210  0.84823664    -0.65000
Ni409      Ni  0.86238102  0.60675174  0.83974407     1.26300
O410        O  0.82961773  0.62595261  0.77237130    -0.65200
O411        O  0.85721762  0.60715360  0.89093369    -0.77500
C412        C  0.86198922  0.56544115  0.82773087     0.85900
O413        O  0.87077232  0.57955742  0.84438489    -0.64700
Ni414      Ni  0.86430572  0.65462446  0.86043610     1.27400
Ni415      Ni  0.85709649  0.63402835  0.78099937     1.26100
H416        H  0.88158229  0.60822203  0.78461661     0.40500
O417        O  0.64386577  0.94190700  0.04742096    -0.79500
O418        O  0.64737959  0.84825242  0.02800837    -0.64200
O419        O  0.62839246  0.90233461  0.03797371    -1.10800
C420        C  0.63794195  0.89006864  0.16308974     1.07400
O421        O  0.62742697  0.83787371  0.07210539    -0.77400
O422        O  0.60405333  0.86389720  0.10743152    -0.65000
Ni423      Ni  0.63813978  0.92359355  0.00783954     1.34900
C424        C  0.59591914  0.88091755  0.10346077     0.86100
O425        O  0.63273313  0.87508122  0.98034085    -0.77900
O426        O  0.63277056  0.90790487  0.96519869    -0.88200
C427        C  0.63949283  0.83419728  0.04644189     0.85700
O428        O  0.66571010  0.91578786  0.00613813    -0.66400
O429        O  0.63470812  0.87175757  0.15513311    -0.85700
C430        C  0.67443723  0.89902566  0.01033766     0.86500
C431        C  0.63136126  0.88931074  0.95737368     1.08100
H432        H  0.65722935  0.87682640  0.08686582     0.39900
O433        O  0.64293327  0.87686253  0.08249146    -1.08400
O434        O  0.60571693  0.89700758  0.09789106    -0.65000
Ni435      Ni  0.63349347  0.90374403  0.08889899     1.26300
O436        O  0.66562706  0.88315357  0.02128679    -0.65200
O437        O  0.63890257  0.90420467  0.13992526    -0.77500
C438        C  0.63338331  0.94512786  0.07563792     0.85900
O439        O  0.62493579  0.93096488  0.09271542    -0.64700
Ni440      Ni  0.63143453  0.85605857  0.11191363     1.27400
Ni441      Ni  0.63815596  0.87554972  0.03138846     1.26100
H442        H  0.61405721  0.90188489  0.03407566     0.40500
O443        O  0.64640693  0.93966371  0.55564288    -0.79500
O444        O  0.64970987  0.84759779  0.52528825    -0.64200
O445        O  0.63040789  0.90140850  0.53833484    -1.10800
C446        C  0.63470483  0.88401924  0.66301802     1.07400
O447        O  0.62624168  0.83766290  0.56299020    -0.77400
O448        O  0.60279990  0.86099528  0.60355735    -0.65000
Ni449      Ni  0.64142587  0.92367353  0.51264274     1.34900
C450        C  0.59472517  0.87798710  0.59898914     0.86100
O451        O  0.63734609  0.87653785  0.47827238    -0.77900
O452        O  0.63684362  0.90997955  0.46753346    -0.88200
C453        C  0.64068308  0.83357706  0.54207019     0.85700
O454        O  0.66888849  0.91545657  0.51135007    -0.66400
O455        O  0.63306169  0.86585154  0.65256765    -0.85700
C456        C  0.67741522  0.89854597  0.51479494     0.86500
C457        C  0.63614672  0.89170081  0.45717467     1.08100
H458        H  0.65664951  0.87426249  0.58833991     0.39900
O459        O  0.64260748  0.87442009  0.58183107    -1.08400
O460        O  0.60462020  0.89404062  0.59348497    -0.65000
Ni461      Ni  0.63278628  0.90090342  0.59000279     1.26300
O462        O  0.66832015  0.88258190  0.52457815    -0.65200
O463        O  0.63530970  0.89915032  0.64179905    -0.77500
C464        C  0.63415761  0.94253733  0.58159717     0.85900
O465        O  0.62435198  0.92813712  0.59550387    -0.64700
Ni466      Ni  0.63005132  0.85255386  0.60679562     1.27400
Ni467      Ni  0.64040510  0.87491921  0.52997320     1.26100
H468        H  0.61632579  0.90116886  0.53209053     0.40500
O469        O  0.85065970  0.94139996  0.33028076    -0.79500
O470        O  0.84770004  0.84864801  0.35419001    -0.64200
O471        O  0.86658262  0.90275851  0.34377058    -1.10800
C472        C  0.85922005  0.88874000  0.21806995     1.07400
O473        O  0.86921164  0.83895229  0.31239555    -0.77400
O474        O  0.89188863  0.86355587  0.27280961    -0.65000
Ni475      Ni  0.85591337  0.92432452  0.37165514     1.34900
C476        C  0.90048897  0.88014202  0.27927517     0.86100
O477        O  0.86106231  0.87640672  0.40216785    -0.77900
O478        O  0.86068666  0.90954086  0.41548360    -0.88200
C479        C  0.85614546  0.83481039  0.33613964     0.85700
O480        O  0.82843573  0.91610459  0.37259446    -0.66400
O481        O  0.86046586  0.87028524  0.22678517    -0.85700
C482        C  0.81994490  0.89915373  0.36896105     0.86500
C483        C  0.86194257  0.89108030  0.42440695     1.08100
H484        H  0.83895536  0.87707797  0.29386905     0.39900
O485        O  0.85316294  0.87686178  0.29908741    -1.08400
O486        O  0.89113611  0.89621269  0.28688274    -0.65000
Ni487      Ni  0.86322002  0.90347365  0.29235280     1.26300
O488        O  0.82903206  0.88332039  0.35879713    -0.65200
O489        O  0.85968535  0.90322761  0.24064854    -0.77500
C490        C  0.86239437  0.94475352  0.30376341     0.85900
O491        O  0.87199990  0.93069058  0.28854171    -0.64700
Ni492      Ni  0.86443297  0.85557168  0.27087161     1.27400
Ni493      Ni  0.85678190  0.87605069  0.35067032     1.26100
H494        H  0.88076912  0.90251385  0.34919041     0.40500
O495        O  0.84915075  0.94154848  0.83160981    -0.79500
O496        O  0.84591323  0.84818042  0.85348151    -0.64200
O497        O  0.86461594  0.90239412  0.84340521    -1.10800
C498        C  0.85578741  0.88872019  0.71785598     1.07400
O499        O  0.86741824  0.83900946  0.81140577    -0.77400
O500        O  0.88923607  0.86375720  0.77054351    -0.65000
Ni501      Ni  0.85419423  0.92376441  0.87220933     1.34900
C502        C  0.89774383  0.88041854  0.77667580     0.86100
O503        O  0.85973164  0.87552664  0.90149279    -0.77900
O504        O  0.85884096  0.90849844  0.91561470    -0.88200
C505        C  0.85445527  0.83454744  0.83512501     0.85700
O506        O  0.82666326  0.91567226  0.87257829    -0.66400
O507        O  0.85715956  0.87023518  0.72630991    -0.85700
C508        C  0.81819999  0.89868360  0.86914540     0.86500
C509        C  0.86044906  0.89000866  0.92409994     1.08100
H510        H  0.83649060  0.87678313  0.79406833     0.39900
O511        O  0.85074927  0.87664573  0.79881556    -1.08400
O512        O  0.88838575  0.89631251  0.78523541    -0.65000
Ni513      Ni  0.86055788  0.90330886  0.79209751     1.26300
O514        O  0.82729668  0.88281232  0.85925833    -0.65200
O515        O  0.85639225  0.90315926  0.74054887    -0.77500
C516        C  0.86033049  0.94469203  0.80421155     0.85900
O517        O  0.86928232  0.93050264  0.78814507    -0.64700
Ni518      Ni  0.86186419  0.85550377  0.77007799     1.27400
Ni519      Ni  0.85493162  0.87558493  0.85018272     1.26100
H520        H  0.87886820  0.90215294  0.84822795     0.40500
O521        O  0.66311411  0.13458312  0.18889940    -0.79500
O522        O  0.57208547  0.13258058  0.16138022    -0.64200
O523        O  0.62586024  0.15100190  0.17394734    -1.10800
C524        C  0.61042793  0.14024831  0.29875315     1.07400
O525        O  0.56126190  0.15338233  0.20384688    -0.77400
O526        O  0.58594257  0.17450124  0.24962352    -0.65000
Ni527      Ni  0.64732133  0.13953458  0.14647959     1.34900
C528        C  0.60264815  0.18343502  0.24551877     0.86100
O529        O  0.60011108  0.14519494  0.11458390    -0.77900
O530        O  0.63319300  0.14365524  0.10181599    -0.88200
C531        C  0.55791930  0.14171464  0.17720597     0.85700
O532        O  0.63908348  0.11208956  0.14742277    -0.66400
O533        O  0.59202959  0.14087723  0.28924496    -0.85700
C534        C  0.62218980  0.10371892  0.15203480     0.86500
C535        C  0.61484497  0.14514384  0.09247749     1.08100
H536        H  0.60008238  0.12292104  0.22225675     0.39900
O537        O  0.59965451  0.13718254  0.21751963    -1.08400
O538        O  0.61845710  0.17484790  0.23384792    -0.65000
Ni539      Ni  0.62616735  0.14718445  0.22559266     1.26300
O540        O  0.60622410  0.11327049  0.15943619    -0.65200
O541        O  0.62528364  0.14255680  0.27715813    -0.77500
C542        C  0.66736419  0.14811111  0.21171521     0.85900
O543        O  0.65352401  0.15651016  0.22989531    -0.64700
Ni544      Ni  0.57775639  0.14702601  0.24547212     1.27400
Ni545      Ni  0.59929917  0.14118061  0.16616408     1.26100
H546        H  0.62584518  0.16523174  0.16886721     0.40500
O547        O  0.66249984  0.13203656  0.68777839    -0.79500
O548        O  0.57078514  0.13118071  0.66184908    -0.64200
O549        O  0.62483715  0.14880511  0.67426271    -1.10800
C550        C  0.61008035  0.13767055  0.79892919     1.07400
O551        O  0.55978309  0.15106791  0.70560728    -0.77400
O552        O  0.58520689  0.17229950  0.74972844    -0.65000
Ni553      Ni  0.64589867  0.13691474  0.64621317     1.34900
C554        C  0.60206811  0.18100122  0.74614144     0.86100
O555        O  0.59851973  0.14430498  0.61540440    -0.77900
O556        O  0.63131445  0.14094808  0.60190507    -0.88200
C557        C  0.55660131  0.14000463  0.67807776     0.85700
O558        O  0.63736535  0.10958604  0.64866152    -0.66400
O559        O  0.59162876  0.13891015  0.78999658    -0.85700
C560        C  0.62026886  0.10155997  0.65271167     0.86500
C561        C  0.61305237  0.14366624  0.59297494     1.08100
H562        H  0.59882933  0.12060872  0.72213859     0.39900
O563        O  0.59857581  0.13491790  0.71784911    -1.08400
O564        O  0.61790279  0.17220889  0.73500053    -0.65000
Ni565      Ni  0.62532139  0.14452813  0.72565516     1.26300
O566        O  0.60438988  0.11150203  0.65890964    -0.65200
O567        O  0.62476793  0.13943585  0.77690893    -0.77500
C568        C  0.66670639  0.14492608  0.71181960     0.85900
O569        O  0.65284966  0.15342363  0.72986114    -0.64700
Ni570      Ni  0.57692740  0.14484701  0.74652862     1.27400
Ni571      Ni  0.59802764  0.13949011  0.66668970     1.26100
H572        H  0.62511165  0.16307022  0.66951386     0.40500
O573        O  0.66232843  0.37643439  0.45022461    -0.79500
O574        O  0.56997549  0.37743105  0.47081733    -0.64200
O575        O  0.62426360  0.35997043  0.46176502    -1.10800
C576        C  0.61165075  0.37128258  0.33618731     1.07400
O577        O  0.56025865  0.35709791  0.42665735    -0.77400
O578        O  0.58620722  0.33658899  0.38269993    -0.65000
Ni579      Ni  0.64499083  0.37168267  0.49089479     1.34900
C580        C  0.60282108  0.32778186  0.38807986     0.86100
O581        O  0.59700802  0.36468993  0.51935993    -0.77900
O582        O  0.62965334  0.36778783  0.53439466    -0.88200
C583        C  0.55625734  0.36831942  0.45358043     0.85700
O584        O  0.63669433  0.39896167  0.48791076    -0.66400
O585        O  0.59305461  0.37049675  0.34422961    -0.85700
C586        C  0.61974616  0.40703175  0.48289306     0.86500
C587        C  0.61123523  0.36526886  0.54250396     1.08100
H588        H  0.59931505  0.38810853  0.41239282     0.39900
O589        O  0.59887918  0.37380134  0.41668415    -1.08400
O590        O  0.61829833  0.33647914  0.40103200    -0.65000
Ni591      Ni  0.62561815  0.36417752  0.41033993     1.26300
O592        O  0.60384971  0.39722326  0.47580875    -0.65200
O593        O  0.62595210  0.36910855  0.35891423    -0.77500
C594        C  0.66664344  0.36356938  0.42622633     0.85900
O595        O  0.65298345  0.35519652  0.40755716    -0.64700
Ni596      Ni  0.57776783  0.36394684  0.38667517     1.27400
Ni597      Ni  0.59737901  0.36928440  0.46784912     1.26100
H598        H  0.62433854  0.34570849  0.46655976     0.40500
O599        O  0.66357226  0.37352712  0.94870888    -0.79500
O600        O  0.57186273  0.37528078  0.97324181    -0.64200
O601        O  0.62575757  0.35723906  0.96225840    -1.10800
C602        C  0.61129854  0.36675859  0.83685320     1.07400
O603        O  0.56131970  0.35425394  0.93080844    -0.77400
O604        O  0.58646585  0.33293768  0.88686579    -0.65000
Ni605      Ni  0.64693737  0.36889553  0.99030075     1.34900
C606        C  0.60320237  0.32423578  0.89134929     0.86100
O607        O  0.59934330  0.36281162  0.02075234    -0.77900
O608        O  0.63220814  0.36517361  0.03455084    -0.88200
C609        C  0.55786117  0.36580566  0.95750996     0.85700
O610        O  0.63885631  0.39624643  0.98769469    -0.66400
O611        O  0.59284101  0.36600449  0.84593131    -0.85700
C612        C  0.62202186  0.40454267  0.98269221     0.86500
C613        C  0.61382155  0.36314570  0.04333079     1.08100
H614        H  0.60019016  0.38493157  0.91290811     0.39900
O615        O  0.59981886  0.37068829  0.91785902    -1.08400
O616        O  0.61896005  0.33310049  0.90272457    -0.65000
Ni617      Ni  0.62642533  0.36088684  0.91063924     1.26300
O618        O  0.60597286  0.39489004  0.97584484    -0.65200
O619        O  0.62597584  0.36514460  0.85897846    -0.77500
C620        C  0.66762689  0.36058394  0.92471004     0.85900
O621        O  0.65377158  0.35191435  0.90694794    -0.64700
Ni622      Ni  0.57820765  0.36035319  0.88956840     1.27400
Ni623      Ni  0.59908834  0.36687079  0.96921088     1.26100
H624        H  0.62572786  0.34302792  0.96749662     0.40500
O625        O  0.33190238  0.63355750  0.44343398    -0.79500
O626        O  0.42339885  0.63179268  0.47211230    -0.64200
O627        O  0.36958372  0.64960812  0.45843254    -1.10800
C628        C  0.38512010  0.63831648  0.33395522     1.07400
O629        O  0.43463486  0.65168965  0.42845374    -0.77400
O630        O  0.40989617  0.67260206  0.38296100    -0.65000
Ni631      Ni  0.34805056  0.63798782  0.48566121     1.34900
C632        C  0.39323822  0.68151476  0.38711373     0.86100
O633        O  0.39526992  0.64491381  0.51793263    -0.77900
O634        O  0.36230167  0.64152319  0.53039010    -0.88200
C635        C  0.43768470  0.64069812  0.45609766     0.85700
O636        O  0.35614533  0.61065166  0.48312349    -0.66400
O637        O  0.40352710  0.63892944  0.34341175    -0.85700
C638        C  0.37320496  0.60251115  0.48020929     0.86500
C639        C  0.38051245  0.64405298  0.53988961     1.08100
H640        H  0.39546095  0.62114469  0.41127712     0.39900
O641        O  0.39594328  0.63545797  0.41548639    -1.08400
O642        O  0.37737965  0.67295656  0.39862579    -0.65000
Ni643      Ni  0.36948061  0.64543531  0.40700392     1.26300
O644        O  0.38933810  0.61225291  0.47464723    -0.65200
O645        O  0.37034381  0.64059684  0.35561384    -0.77500
C646        C  0.32823414  0.64684867  0.41989432     0.85900
O647        O  0.34237971  0.65495984  0.40207316    -0.64700
Ni648      Ni  0.41789425  0.64514172  0.38716183     1.27400
Ni649      Ni  0.39618825  0.64012728  0.46667121     1.26100
H650        H  0.36946515  0.66385617  0.46328101     0.40500
O651        O  0.33172564  0.63391058  0.94576379    -0.79500
O652        O  0.42392582  0.63106340  0.96822753    -0.64200
O653        O  0.37000034  0.64960422  0.95913392    -1.10800
C654        C  0.38327766  0.64045834  0.83345288     1.07400
O655        O  0.43443642  0.65223310  0.92592457    -0.77400
O656        O  0.40892247  0.67416905  0.88301584    -0.65000
Ni657      Ni  0.34887763  0.63764390  0.98704355     1.34900
C658        C  0.39223399  0.68290962  0.88795305     0.86100
O659        O  0.39675434  0.64310143  0.01686345    -0.77900
O660        O  0.36395410  0.64050899  0.03106405    -0.88200
C661        C  0.43794528  0.64051701  0.95243831     0.85700
O662        O  0.35678271  0.61026208  0.98269934    -0.66400
O663        O  0.40184662  0.64129904  0.84179729    -0.85700
C664        C  0.37361223  0.60199639  0.97729111     0.86500
C665        C  0.38237662  0.64237892  0.03965357     1.08100
H666        H  0.39500470  0.62214219  0.90839418     0.39900
O667        O  0.39553870  0.63633521  0.91374815    -1.08400
O668        O  0.37656441  0.67408815  0.89978094    -0.65000
Ni669      Ni  0.36893890  0.64635735  0.90752523     1.26300
O670        O  0.38967467  0.61169118  0.97087685    -0.65200
O671        O  0.36885901  0.64224160  0.85600399    -0.77500
C672        C  0.32780294  0.64724609  0.92238886     0.85900
O673        O  0.34173494  0.65576062  0.90463949    -0.64700
Ni674      Ni  0.41699840  0.64664420  0.88504768     1.27400
Ni675      Ni  0.39668307  0.63969025  0.96514066     1.26100
H676        H  0.37012913  0.66376428  0.96479266     0.40500
O677        O  0.33240037  0.87294241  0.18715258    -0.79500
O678        O  0.42321122  0.87545006  0.15996197    -0.64200
O679        O  0.36970603  0.85656406  0.17211205    -1.10800
C680        C  0.38455529  0.86511936  0.29725076     1.07400
O681        O  0.43482061  0.85495538  0.20234208    -0.77400
O682        O  0.40977063  0.83207367  0.24427323    -0.65000
Ni683      Ni  0.34823520  0.86807047  0.14475226     1.34900
C684        C  0.39287354  0.82344791  0.24076297     0.86100
O685        O  0.39545781  0.86260369  0.11313466    -0.77900
O686        O  0.36240132  0.86390982  0.10013297    -0.88200
C687        C  0.43761271  0.86653636  0.17536992     0.85700
O688        O  0.35639775  0.89552281  0.14600230    -0.66400
O689        O  0.40297594  0.86402365  0.28805017    -0.85700
C690        C  0.37319257  0.90393548  0.15135276     0.86500
C691        C  0.38076591  0.86228260  0.09096847     1.08100
H692        H  0.39552686  0.88436923  0.22139177     0.39900
O693        O  0.39586780  0.87015566  0.21617480    -1.08400
O694        O  0.37689265  0.83244203  0.23121891    -0.65000
Ni695      Ni  0.36928928  0.86010365  0.22366321     1.26300
O696        O  0.38915460  0.89440383  0.15871632    -0.65200
O697        O  0.36984556  0.86422584  0.27515719    -0.77500
C698        C  0.32823465  0.85941998  0.21002834     0.85900
O699        O  0.34207126  0.85074260  0.22763119    -0.64700
Ni700      Ni  0.41765849  0.85968627  0.24387665     1.27400
Ni701      Ni  0.39619962  0.86651216  0.16471728     1.26100
H702        H  0.36978837  0.84236742  0.16675397     0.40500
O703        O  0.33167407  0.87663554  0.68634468    -0.79500
O704        O  0.42277185  0.87582131  0.66058110    -0.64200
O705        O  0.36857603  0.85881378  0.67287061    -1.10800
C706        C  0.38319213  0.86944566  0.79763177     1.07400
O707        O  0.43337566  0.85566972  0.70436706    -0.77400
O708        O  0.40761729  0.83487326  0.74839445    -0.65000
Ni709      Ni  0.34753161  0.87034963  0.64457149     1.34900
C710        C  0.39068804  0.82636443  0.74440517     0.86100
O711        O  0.39472126  0.86330296  0.61387475    -0.77900
O712        O  0.36172406  0.86487271  0.60047783    -0.88200
C713        C  0.43673345  0.86645978  0.67653903     0.85700
O714        O  0.35646171  0.89753021  0.64432604    -0.66400
O715        O  0.40164541  0.86826471  0.78870050    -0.85700
C716        C  0.37333055  0.90567949  0.65011458     0.86500
C717        C  0.38007806  0.86278209  0.59159289     1.08100
H718        H  0.39480740  0.88667439  0.72094495     0.39900
O719        O  0.39488918  0.87237231  0.71653789    -1.08400
O720        O  0.37498904  0.83535907  0.73325751    -0.65000
Ni721      Ni  0.36804059  0.86314010  0.72420904     1.26300
O722        O  0.38907762  0.89592892  0.65811497    -0.65200
O723        O  0.36853037  0.86800240  0.77551239    -0.77500
C724        C  0.32696739  0.86394363  0.71039736     0.85900
O725        O  0.34044385  0.85481198  0.72825220    -0.64700
Ni726      Ni  0.41632206  0.86218161  0.74527098     1.27400
Ni727      Ni  0.39538058  0.86791608  0.66531893     1.26100
H728        H  0.36831514  0.84453919  0.66826591     0.40500
O729        O  0.34863387  0.06662494  0.05654160    -0.79500
O730        O  0.34636879  0.15951116  0.03274050    -0.64200
O731        O  0.36484099  0.10532827  0.04354154    -1.10800
C732        C  0.35657087  0.11948020  0.16892698     1.07400
O733        O  0.36802574  0.16906547  0.07452959    -0.77400
O734        O  0.39028419  0.14424808  0.11482530    -0.65000
Ni735      Ni  0.35432385  0.08373519  0.01534905     1.34900
C736        C  0.39858100  0.12744107  0.10925210     0.86100
O737        O  0.35955797  0.13162514  0.98479045    -0.77900
O738        O  0.35957476  0.09847296  0.97166046    -0.88200
C739        C  0.35505049  0.17331203  0.05068220     0.85700
O740        O  0.32689294  0.09200823  0.01357836    -0.66400
O741        O  0.35844317  0.13789605  0.16019869    -0.85700
C742        C  0.31838280  0.10890022  0.01746323     0.86500
C743        C  0.36069748  0.11692347  0.96263059     1.08100
H744        H  0.33716483  0.13127181  0.09294916     0.39900
O745        O  0.35139320  0.13132182  0.08787743    -1.08400
O746        O  0.38894134  0.11152884  0.10148586    -0.65000
Ni747      Ni  0.36098916  0.10463385  0.09488458     1.26300
O748        O  0.32742278  0.12471668  0.02811404    -0.65200
O749        O  0.35685551  0.10495239  0.14642100    -0.77500
C750        C  0.36019528  0.06328974  0.08328565     0.85900
O751        O  0.36949222  0.07740620  0.09904377    -0.64700
Ni752      Ni  0.36289160  0.15252657  0.11611085     1.27400
Ni753      Ni  0.35519483  0.13204625  0.03635306     1.26100
H754        H  0.37907865  0.10559759  0.03856768     0.40500
O755        O  0.34639848  0.06794107  0.55673789    -0.79500
O756        O  0.34639573  0.16095611  0.53304570    -0.64200
O757        O  0.36324328  0.10630184  0.54345238    -1.10800
C758        C  0.35466055  0.12053760  0.66904076     1.07400
O759        O  0.36841309  0.16925450  0.57497003    -0.77400
O760        O  0.38911344  0.14442354  0.61755290    -0.65000
Ni761      Ni  0.35203542  0.08503272  0.51542506     1.34900
C762        C  0.39731561  0.12776371  0.61036695     0.86100
O763        O  0.35902083  0.13286334  0.48501098    -0.77900
O764        O  0.35727904  0.09978061  0.47164138    -0.88200
C765        C  0.35555338  0.17424411  0.55143060     0.85700
O766        O  0.32477648  0.09389137  0.51469297    -0.66400
O767        O  0.35613227  0.13902989  0.66053906    -0.85700
C768        C  0.31678218  0.11107330  0.51795338     0.86500
C769        C  0.35944597  0.11817473  0.46275229     1.08100
H770        H  0.33606270  0.13255547  0.59277569     0.39900
O771        O  0.35030961  0.13245968  0.58792805    -1.08400
O772        O  0.38759672  0.11222223  0.60081107    -0.65000
Ni773      Ni  0.35954511  0.10571123  0.59480716     1.26300
O774        O  0.32637537  0.12676198  0.52765919    -0.68400
O775        O  0.35564728  0.10608336  0.64643428    -0.77500
C776        C  0.35795249  0.06452049  0.58348581     0.85900
O777        O  0.36766810  0.07846215  0.59885145    -0.64700
Ni778      Ni  0.36191944  0.15336997  0.61665076     1.27400
Ni779      Ni  0.35434875  0.13325737  0.53643621     1.26100
H780        H  0.37746123  0.10616366  0.53828913     0.40500
O781        O  0.14594347  0.06881904  0.33016984    -0.79500
O782        O  0.14769718  0.16172763  0.34986607    -0.64200
O783        O  0.12933631  0.10738319  0.34156268    -1.10800
C784        C  0.13610767  0.12005536  0.21553621     1.07400
O785        O  0.12544212  0.17059336  0.30863790    -0.77400
O786        O  0.10287602  0.14501198  0.27075443    -0.65000
Ni787      Ni  0.13980007  0.08624414  0.37070523     1.34900
C788        C  0.09487581  0.12804951  0.27638165     0.86100
O789        O  0.13505840  0.13438476  0.39911916    -0.77900
O790        O  0.13411462  0.10142976  0.41371129    -0.88200
C791        C  0.13855212  0.17521167  0.33204359     0.85700
O792        O  0.16714086  0.09489110  0.37310377    -0.66400
O793        O  0.13381262  0.13850086  0.22368417    -0.85700
C794        C  0.17576126  0.11165249  0.36781238     0.86500
C795        C  0.13350218  0.12002760  0.42190507     1.08100
H796        H  0.15644148  0.13314993  0.29033288     0.39900
O797        O  0.14227600  0.13297511  0.29590558    -1.08400
O798        O  0.10480518  0.11229654  0.28372449    -0.65000
Ni799      Ni  0.13293097  0.10607323  0.29021086     1.26300
O800        O  0.16686706  0.12711579  0.35533820    -0.65200
O801        O  0.13673472  0.10581777  0.23861024    -0.77500
C802        C  0.13448164  0.06497771  0.30346228     0.85900
O803        O  0.12484168  0.07868579  0.28737859    -0.64700
Ni804      Ni  0.13008295  0.15362844  0.26747226     1.27400
Ni805      Ni  0.13898185  0.13420064  0.34749328     1.26100
H806        H  0.11511697  0.10768700  0.34667867     0.40500
O807        O  0.14698055  0.06802723  0.82502532    -0.79500
O808        O  0.14960425  0.16019236  0.85420180    -0.64200
O809        O  0.13089447  0.10634121  0.83948649    -1.10800
C810        C  0.14097442  0.12283970  0.71535820     1.07400
O811        O  0.12817814  0.17012624  0.81255465    -0.77400
O812        O  0.10651016  0.14635765  0.76926605    -0.65000
Ni813      Ni  0.14081681  0.08426240  0.86697592     1.34900
C814        C  0.09812959  0.12943702  0.77357928     0.86100
O815        O  0.13541828  0.13155612  0.89990418    -0.77900
O816        O  0.13497221  0.09820094  0.91123066    -0.88200
C817        C  0.14118347  0.17417055  0.83646085     0.85700
O818        O  0.16827387  0.09239804  0.87061898    -0.66400
O819        O  0.13906651  0.14108793  0.72512158    -0.85700
C820        C  0.17695631  0.10932308  0.86808626     0.86500
C821        C  0.13377130  0.11649625  0.92117056     1.08100
H822        H  0.15941056  0.13313503  0.79281077     0.39900
O823        O  0.14512309  0.13306037  0.79727777    -1.08400
O824        O  0.10767220  0.11347400  0.78090741    -0.65000
Ni825      Ni  0.13549064  0.10655868  0.78827909     1.26300
O826        O  0.16818832  0.12532543  0.85783397    -0.65200
O827        O  0.14032528  0.10788333  0.73695093    -0.77500
C828        C  0.13542233  0.06507729  0.79813640     0.85900
O829        O  0.12679985  0.07949226  0.78218491    -0.64700
Ni830      Ni  0.13394250  0.15473847  0.76995691     1.27400
Ni831      Ni  0.14060203  0.13286461  0.84865946     1.26100
H832        H  0.11659226  0.10656646  0.84380502     0.40500
C833        C  0.14042516  0.12035605  0.60593435     0.18400
C834        C  0.12167971  0.12567186  0.59160875    -0.10700
C835        C  0.11920075  0.12780374  0.55418244    -0.11500
C836        C  0.13548885  0.12469862  0.53089924     0.20000
C837        C  0.15426529  0.11944470  0.54520904    -0.13600
C838        C  0.15674564  0.11731051  0.58266304    -0.11900
C839        C  0.13284114  0.12583761  0.49225869     0.01000
C840        C  0.13199070  0.12469789  0.45970435    -0.31900
C841        C  0.14283758  0.11876673  0.64458909     0.02300
C842        C  0.14312808  0.11925401  0.67724189    -0.33500
H843        H  0.10898588  0.12817560  0.60939376     0.13400
H844        H  0.10459579  0.13172980  0.54342139     0.13200
H845        H  0.16693446  0.11687050  0.52739513     0.13100
H846        H  0.17132910  0.11330945  0.59342759     0.12100
C847        C  0.13195733  0.11861664  0.03073457     0.18400
C848        C  0.13211807  0.13596219  0.05214289    -0.10700
C849        C  0.13390567  0.13439794  0.08978062    -0.11500
C850        C  0.13559267  0.11549348  0.10622381     0.20000
C851        C  0.13538794  0.09811555  0.08483773    -0.13600
C852        C  0.13360083  0.09968254  0.04714775    -0.11900
C853        C  0.13711610  0.11419037  0.14507182     0.01000
C854        C  0.13744755  0.11537061  0.17767333    -0.31900
C855        C  0.13085610  0.12017605  0.99188513     0.02300
C856        C  0.13122324  0.11992687  0.95923152    -0.33500
H857        H  0.13096529  0.15066590  0.03975390     0.13400
H858        H  0.13398084  0.14793322  0.10608008     0.13200
H859        H  0.13661557  0.08342242  0.09724319     0.13100
H860        H  0.13360041  0.08616342  0.03080252     0.12100
C861        C  0.26267945  0.11374119  0.46752369     0.18400
C862        C  0.24469303  0.12292867  0.47815801    -0.10700
C863        C  0.22815951  0.12322120  0.45455419    -0.11500
C864        C  0.22944745  0.11438704  0.42005704     0.20000
C865        C  0.24740771  0.10513646  0.40952305    -0.13600
C866        C  0.26392119  0.10484007  0.43310324    -0.11900
C867        C  0.21207611  0.11417574  0.39631063     0.01000
C868        C  0.19632731  0.11346613  0.37986683    -0.31900
C869        C  0.28010202  0.11369402  0.49113440     0.02300
C870        C  0.29607682  0.11300083  0.50683126    -0.33500
H871        H  0.24345169  0.12988363  0.50459680     0.13400
H872        H  0.21433919  0.13028407  0.46325696     0.13200
H873        H  0.24863777  0.09809997  0.38315236     0.13100
H874        H  0.27770570  0.09769108  0.42444086     0.12100
C875        C  0.35958545  0.11965905  0.85326597     0.18400
C876        C  0.34116525  0.12437621  0.83703350    -0.10700
C877        C  0.33867656  0.12218167  0.79959759    -0.11500
C878        C  0.35456782  0.11515169  0.77824684     0.20000
C879        C  0.37290090  0.11017917  0.79454769    -0.13600
C880        C  0.37539107  0.11237892  0.83198082    -0.11900
C881        C  0.35266744  0.11453434  0.73940604     0.01000
C882        C  0.35256025  0.11600011  0.70684391    -0.31900
C883        C  0.36187122  0.12136727  0.89194103     0.02300
C884        C  0.36242052  0.12093831  0.92458821    -0.33500
H885        H  0.32876443  0.12979563  0.85329472     0.13400
H886        H  0.32448497  0.12620921  0.78726831     0.13200
H887        H  0.38533871  0.10486739  0.77826244     0.13100
H888        H  0.38962209  0.10846538  0.84428209     0.12100
C889        C  0.36026940  0.12113980  0.35336417     0.18400
C890        C  0.34149513  0.12326461  0.33665869    -0.10700
C891        C  0.33959414  0.12065155  0.29920589    -0.11500
C892        C  0.35645007  0.11579877  0.27829706     0.20000
C893        C  0.37522223  0.11363694  0.29500288    -0.13600
C894        C  0.37712394  0.11625015  0.33246675    -0.11900
C895        C  0.35482576  0.11434582  0.23949075     0.01000
C896        C  0.35471785  0.11520277  0.20686118    -0.31900
C897        C  0.36187812  0.12279179  0.39215384     0.02300
C898        C  0.36176369  0.12220353  0.42480741    -0.33500
H899        H  0.32832621  0.12685637  0.35260920     0.13400
H900        H  0.32504367  0.12253957  0.28655309     0.13200
H901        H  0.38839186  0.11006703  0.27903887     0.13100
H902        H  0.39167721  0.11438550  0.34511904     0.12100
C903        C  0.26415252  0.11163830  0.96724690     0.18400
C904        C  0.26464173  0.12218360  0.93430277    -0.10700
C905        C  0.24796408  0.12199058  0.91108489    -0.11500
C906        C  0.23064211  0.11119149  0.92053029     0.20000
C907        C  0.23013795  0.10068272  0.95351364    -0.13600
C908        C  0.24681345  0.10087454  0.97672671    -0.11900
C909        C  0.21320119  0.11111423  0.89702849     0.01000
C910        C  0.19744196  0.11062113  0.88064899    -0.31900
C911        C  0.28178395  0.11119148  0.99025548     0.02300
C912        C  0.29773062  0.11043321  0.00598045    -0.33500
H913        H  0.27797668  0.13045641  0.92644683     0.13400
H914        H  0.24859470  0.13022960  0.88579652     0.13200
H915        H  0.21684666  0.09231193  0.96127587     0.13100
H916        H  0.24622296  0.09253763  0.00191554     0.12100
C917        C  0.36555088  0.00682698  0.61793705     0.18400
C918        C  0.35434802  0.99789761  0.64580201    -0.10700
C919        C  0.35737330  0.97766700  0.65462908    -0.11500
C920        C  0.37163175  0.96630013  0.63567159     0.20000
C921        C  0.38301314  0.97533547  0.60820114    -0.13600
C922        C  0.37999369  0.99553033  0.59939082    -0.11900
C923        C  0.37378302  0.94513121  0.64286220     0.01000
C924        C  0.37447043  0.92716508  0.64704417    -0.31900
C925        C  0.36202170  0.02738613  0.60757140     0.02300
C926        C  0.35970899  0.04441055  0.59719173    -0.33500
H927        H  0.34312659  0.00647119  0.66032348     0.13400
H928        H  0.34839286  0.97081679  0.67578459     0.13200
H929        H  0.39398458  0.96668881  0.59320692     0.13100
H930        H  0.38872992  0.00226415  0.57778470     0.12100
C931        C  0.37144936  0.96451979  0.13558429     0.18400
C932        C  0.38837452  0.97649052  0.12871777    -0.10700
C933        C  0.38606919  0.99678695  0.11960218    -0.11500
C934        C  0.36683311  0.00521873  0.11727609     0.20000
C935        C  0.34994334  0.99327957  0.12447972    -0.13600
C936        C  0.35224583  0.97301266  0.13359375    -0.11900
C937        C  0.36437246  0.02592120  0.10654728     0.01000
C938        C  0.36231841  0.04307444  0.09653854    -0.31900
C939        C  0.37357094  0.94337826  0.14327570     0.02300
C940        C  0.37411791  0.92544172  0.14807498    -0.33500
H941        H  0.40329820  0.97009726  0.13000063     0.13400
H942        H  0.39924922  0.00583614  0.11399974     0.13200
H943        H  0.33499501  0.99957741  0.12267864     0.13100
H944        H  0.33903935  0.96390424  0.13867329     0.12100
C945        C  0.37973571  0.86886277  0.90682391     0.18400
C946        C  0.36980811  0.85299714  0.92425362    -0.10700
C947        C  0.37210713  0.85020065  0.96158402    -0.11500
C948        C  0.38443166  0.86318820  0.98159654     0.20000
C949        C  0.39442957  0.87899562  0.96413533    -0.13600
C950        C  0.39212953  0.88179246  0.92680931    -0.11900
C951        C  0.38569450  0.86114295  0.02033273     0.01000
C952        C  0.38481892  0.86072940  0.05293840    -0.31900
C953        C  0.37826983  0.87108243  0.86814438     0.02300
C954        C  0.37904162  0.87150515  0.83553453    -0.33500
H955        H  0.36036969  0.84277179  0.90898922     0.13400
H956        H  0.36417224  0.83803178  0.97486969     0.13200
H957        H  0.40386014  0.88922772  0.97939906     0.13100
H958        H  0.40005476  0.89396854  0.91352764     0.12100
C959        C  0.38393874  0.86154616  0.48218871     0.18400
C960        C  0.37353057  0.84690768  0.46233385    -0.10700
C961        C  0.37170898  0.84874048  0.42470409    -0.11500
C962        C  0.38019332  0.86527584  0.40680563     0.20000
C963        C  0.39052414  0.87994621  0.42669344    -0.13600
C964        C  0.39234959  0.87811103  0.46429920    -0.11900
C965        C  0.37935624  0.86659399  0.36789940     0.01000
C966        C  0.38045856  0.86673478  0.33528968    -0.31900
C967        C  0.38500894  0.86021119  0.52106610     0.02300
C968        C  0.38415525  0.86042872  0.55369090    -0.33500
H969        H  0.36679028  0.83414117  0.47593149     0.13400
H970        H  0.36381522  0.83722891  0.40956844     0.13200
H971        H  0.39726893  0.89271569  0.41311314     0.13100
H972        H  0.40025140  0.88962203  0.47942323     0.12100
C973        C  0.38941176  0.73746362  0.83844862     0.18400
C974        C  0.40713814  0.74453055  0.82228059    -0.10700
C975        C  0.40676673  0.76144376  0.79965221    -0.11500
C976        C  0.38864422  0.77142792  0.79277689     0.20000
C977        C  0.37088494  0.76431153  0.80878273    -0.13600
C978        C  0.37125556  0.74737563  0.83142410    -0.11900
C979        C  0.38851146  0.78955613  0.77102540     0.01000
C980        C  0.38905249  0.80570986  0.75593674    -0.31900
C981        C  0.38982483  0.71957826  0.86085807     0.02300
C982        C  0.39068511  0.70357205  0.87641328    -0.33500
H983        H  0.42125891  0.73695633  0.82715356     0.13400
H984        H  0.42064017  0.76681491  0.78772602     0.13200
H985        H  0.35678243  0.77192809  0.80396411     0.13100
H986        H  0.35739815  0.74202010  0.84342484     0.12100
C987        C  0.37875514  0.63794110  0.72440965     0.18400
C988        C  0.39584399  0.63050729  0.70680580    -0.10700
C989        C  0.39788335  0.63262910  0.66928572    -0.11500
C990        C  0.38287293  0.64227884  0.64927893     0.20000
C991        C  0.36565467  0.64944564  0.66681763    -0.13600
C992        C  0.36361801  0.64732917  0.70432751    -0.11900
C993        C  0.38470705  0.64432848  0.61063488     0.01000
C994        C  0.38428013  0.64516254  0.57803850    -0.31900
C995        C  0.37755976  0.63722524  0.76327618     0.02300
C996        C  0.37869289  0.63793316  0.79582014    -0.33500
H997        H  0.40770372  0.62334393  0.72214977     0.13400
H998        H  0.41116916  0.62687217  0.65595201     0.13200
H999        H  0.35387458  0.65676790  0.65152142     0.13100
H1000       H  0.35041576  0.65325001  0.71769693     0.12100
C1001       C  0.38630087  0.64046709  0.14915111     0.18400
C1002       C  0.38680666  0.62149675  0.16565155    -0.10700
C1003       C  0.38452448  0.61974254  0.20324323    -0.11500
C1004       C  0.38162332  0.63694694  0.22446490     0.20000
C1005       C  0.38105770  0.65588742  0.20792401    -0.13600
C1006       C  0.38334733  0.65763979  0.17038483    -0.11900
C1007       C  0.38038050  0.63545364  0.26334960     0.01000
C1008       C  0.38117986  0.63574329  0.29600298    -0.31900
C1009       C  0.38767967  0.64221373  0.11031211     0.02300
C1010       C  0.38680302  0.64304174  0.07769367    -0.33500
H1011       H  0.38889419  0.60808710  0.14946603     0.13400
H1012       H  0.38513506  0.60503340  0.21574277     0.13200
H1013       H  0.37897165  0.66930904  0.22408066     0.13100
H1014       H  0.38274350  0.67235832  0.15791933     0.12100
C1015       C  0.39010567  0.76877803  0.28903346     0.18400
C1016       C  0.40383602  0.75320315  0.28318207    -0.10700
C1017       C  0.40415456  0.73654588  0.30636569    -0.11500
C1018       C  0.39081273  0.73533480  0.33571331     0.20000
C1019       C  0.37695858  0.75083265  0.34143188    -0.13600
C1020       C  0.37664104  0.76751002  0.31822394    -0.11900
C1021       C  0.39114122  0.71788843  0.35907264     0.01000
C1022       C  0.39193640  0.70205379  0.37508443    -0.31900
C1023       C  0.39060782  0.78659151  0.26660112     0.02300
C1024       C  0.39148180  0.80268288  0.25144709    -0.33500
H1025       H  0.41442274  0.75402450  0.26094108     0.13400
H1026       H  0.41486000  0.72462588  0.30146898     0.13200
H1027       H  0.36647475  0.75006324  0.36383685     0.13100
H1028       H  0.36603969  0.77950583  0.32325478     0.12100
C1029       C  0.61351797  0.36756036  0.72726630     0.18400
C1030       C  0.61711554  0.34937728  0.70927253    -0.10700
C1031       C  0.61422681  0.34795700  0.67178153    -0.11500
C1032       C  0.60760652  0.36467488  0.65207667     0.20000
C1033       C  0.60392017  0.38283217  0.67010923    -0.13600
C1034       C  0.60681046  0.38425274  0.70760220    -0.11900
C1035       C  0.60590174  0.36359685  0.61314750     0.01000
C1036       C  0.60667343  0.36358583  0.58045188    -0.31900
C1037       C  0.61562020  0.36873871  0.76609756     0.02300
C1038       C  0.61532153  0.36871967  0.79879766    -0.33500
H1039       H  0.62210756  0.33630428  0.72422098     0.13400
H1040       H  0.61729740  0.33388869  0.65813696     0.13200
H1041       H  0.59896652  0.39591727  0.65515912     0.13100
H1042       H  0.60378249  0.39833093  0.72124721     0.12100
C1043       C  0.61003296  0.36504603  0.15266457     0.18400
C1044       C  0.60034379  0.38105410  0.16998680    -0.10700
C1045       C  0.60295149  0.38411641  0.20721482    -0.11500
C1046       C  0.61535669  0.37125648  0.22722925     0.20000
C1047       C  0.62496167  0.35520776  0.20992688    -0.13600
C1048       C  0.62235022  0.35214292  0.17273370    -0.11900
C1049       C  0.61704117  0.37357192  0.26589220     0.01000
C1050       C  0.61629971  0.37374812  0.29852680    -0.31900
C1051       C  0.60856149  0.36270317  0.11396318     0.02300
C1052       C  0.60949667  0.36194038  0.08135663    -0.33500
H1053       H  0.59091896  0.39122995  0.15469329     0.13400
H1054       H  0.59524029  0.39642218  0.22039761     0.13200
H1055       H  0.63437691  0.34501833  0.22521184     0.13100
H1056       H  0.63005071  0.33982072  0.15958317     0.12100
C1057       C  0.45806963  0.12859846  0.62469399     0.18400
C1058       C  0.46949447  0.11172061  0.63410138    -0.10700
C1059       C  0.48985466  0.11389337  0.64292749    -0.11500
C1060       C  0.49888133  0.13295529  0.64242740     0.20000
C1061       C  0.48754447  0.14973340  0.63229771    -0.13600
C1062       C  0.46722492  0.14756448  0.62348182    -0.11900
C1063       C  0.51947400  0.13549683  0.65376821     0.01000
C1064       C  0.53647507  0.13779828  0.66443684    -0.31900
C1065       C  0.43679403  0.12677699  0.61791761     0.02300
C1066       C  0.41880591  0.12652367  0.61367396    -0.33500
H1067       H  0.46259972  0.09697893  0.63522489     0.13400
H1068       H  0.49844580  0.10079493  0.65074458     0.13200
H1069       H  0.49431980  0.16454139  0.63183974     0.13100
H1070       H  0.45856312  0.16073498  0.61634408     0.12100
C1071       C  0.60497343  0.26971159  0.84168074     0.18400
C1072       C  0.60341647  0.25051142  0.85703689    -0.10700
C1073       C  0.60311596  0.23342151  0.83477749    -0.11500
C1074       C  0.60436069  0.23533309  0.79693021     0.20000
C1075       C  0.60586022  0.25454228  0.78158025    -0.13600
C1076       C  0.60616404  0.27163009  0.80383762    -0.11900
C1077       C  0.60404970  0.21753681  0.77420893     0.01000
C1078       C  0.60348438  0.20159024  0.75834583    -0.31900
C1079       C  0.60502163  0.28752007  0.86432790     0.02300
C1080       C  0.60459047  0.30354906  0.87987741    -0.33500
H1081       H  0.60239819  0.24874593  0.88616150     0.13400
H1082       H  0.60190159  0.21869868  0.84709836     0.13200
H1083       H  0.60678500  0.25631963  0.75244948     0.13100
H1084       H  0.60728866  0.28636028  0.79151261     0.12100
C1085       C  0.49983621  0.13325612  0.14442156     0.18400
C1086       C  0.49228128  0.14163469  0.11236134    -0.10700
C1087       C  0.47201784  0.13911506  0.10318662    -0.11500
C1088       C  0.45917707  0.12817713  0.12598611     0.20000
C1089       C  0.46680931  0.11954495  0.15776667    -0.13600
C1090       C  0.48706236  0.12206446  0.16693807    -0.11900
C1091       C  0.43801052  0.12669986  0.11784807     0.01000
C1092       C  0.42008239  0.12642884  0.11277529    -0.31900
C1093       C  0.52051809  0.13650045  0.15470055     0.02300
C1094       C  0.53766845  0.13913550  0.16433649    -0.33500
H1095       H  0.50197981  0.15032077  0.09471947     0.13400
H1096       H  0.46630432  0.14594562  0.07863249     0.13200
H1097       H  0.45704255  0.11113529  0.17572316     0.13100
H1098       H  0.49269378  0.11551001  0.19180147     0.12100
C1099       C  0.61156225  0.14146257  0.98319597     0.18400
C1100       C  0.59734727  0.12969157  0.96489254    -0.10700
C1101       C  0.59892687  0.12689096  0.92741846    -0.11500
C1102       C  0.61478550  0.13575429  0.90816070     0.20000
C1103       C  0.62916918  0.14723915  0.92657353    -0.13600
C1104       C  0.62758988  0.15003818  0.96400992    -0.11900
C1105       C  0.61539751  0.13438314  0.86927040     0.01000
C1106       C  0.61423350  0.13488479  0.83669545    -0.31900
C1107       C  0.61017502  0.14429795  0.02178071     0.02300
C1108       C  0.61088098  0.14576672  0.05431497    -0.33500
H1109       H  0.58500505  0.12282296  0.97950613     0.13400
H1110       H  0.58763681  0.11809553  0.91339782     0.13200
H1111       H  0.64140531  0.15427683  0.91192835     0.13100
H1112       H  0.63877670  0.15900061  0.97795405     0.12100
C1113       C  0.60936894  0.14325875  0.48348084     0.18400
C1114       C  0.62659978  0.15018987  0.46556597    -0.10700
C1115       C  0.62849961  0.14779722  0.42807756    -0.11500
C1116       C  0.61321242  0.13838831  0.40827538     0.20000
C1117       C  0.59598360  0.13138361  0.42618332    -0.13600
C1118       C  0.59408553  0.13377087  0.46372694    -0.11900
C1119       C  0.61461918  0.13708396  0.36939121     0.01000
C1120       C  0.61418746  0.13755695  0.33672463    -0.31900
C1121       C  0.60800380  0.14501444  0.52230597     0.02300
C1122       C  0.60891374  0.14535036  0.55494235    -0.33500
H1123       H  0.63858791  0.15739795  0.48060060     0.13400
H1124       H  0.64180119  0.15341457  0.41451119     0.13200
H1125       H  0.58398030  0.12422686  0.41110718     0.13100
H1126       H  0.58077016  0.12820105  0.47731644     0.12100
C1127       C  0.60478317  0.23826506  0.29493206     0.18400
C1128       C  0.58669400  0.24676339  0.30686573    -0.10700
C1129       C  0.58683659  0.26388600  0.32903187    -0.11500
C1130       C  0.60506835  0.27268535  0.33968918     0.20000
C1131       C  0.62317597  0.26415529  0.32787087    -0.13600
C1132       C  0.62303317  0.24700982  0.30569270    -0.11900
C1133       C  0.60507729  0.29095907  0.36117629     0.01000
C1134       C  0.60442507  0.30713988  0.37624323    -0.31900
C1135       C  0.60456558  0.22014241  0.27302918     0.02300
C1136       C  0.60396204  0.20406531  0.25758419    -0.33500
H1137       H  0.57246337  0.24013472  0.29908345     0.13400
H1138       H  0.57271005  0.27032964  0.33769673     0.13200
H1139       H  0.63739718  0.27080972  0.33563078     0.13100
H1140       H  0.63715011  0.24056507  0.29698721     0.12100
C1141       C  0.86126189  0.88772513  0.53369784     0.18400
C1142       C  0.87759953  0.89403405  0.55474803    -0.10700
C1143       C  0.87538402  0.89646241  0.59217761    -0.11500
C1144       C  0.85678970  0.89270822  0.60865845     0.20000
C1145       C  0.84045387  0.88641132  0.58759887    -0.13600
C1146       C  0.84266848  0.88398387  0.55017767    -0.11900
C1147       C  0.85484240  0.89409225  0.64738965     0.01000
C1148       C  0.85430719  0.89317251  0.67997953    -0.31900
C1149       C  0.86319532  0.88623724  0.49498108     0.02300
C1150       C  0.86360369  0.88695264  0.46237169    -0.33500
H1151       H  0.89198815  0.89714655  0.54222645     0.13400
H1152       H  0.88816852  0.90115219  0.60826861     0.13200
H1153       H  0.82606780  0.88328348  0.60011702     0.13100
H1154       H  0.82988525  0.87928193  0.53409265     0.12100
C1155       C  0.86161866  0.88644967  0.03343853     0.18400
C1156       C  0.84302635  0.88495968  0.05104256    -0.10700
C1157       C  0.84177319  0.88775458  0.08854095    -0.11500
C1158       C  0.85908930  0.89214879  0.10859940     0.20000
C1159       C  0.87768757  0.89363244  0.09100023    -0.13600
C1160       C  0.87894078  0.89083920  0.05348997    -0.11900
C1161       C  0.85799538  0.89384038  0.14744334     0.01000
C1162       C  0.85783990  0.89307908  0.18008646    -0.31900
C1163       C  0.86264820  0.88480813  0.99458871     0.02300
C1164       C  0.86248015  0.88561734  0.96195529    -0.33500
H1165       H  0.82950113  0.88176226  0.03576238     0.13400
H1166       H  0.82734879  0.88638880  0.10189934     0.13200
H1167       H  0.89120887  0.89683967  0.10628273     0.13100
H1168       H  0.89336078  0.89221541  0.04011950     0.12100
C1169       C  0.62190585  0.04094970  0.63641465     0.18400
C1170       C  0.60526371  0.02801383  0.63518179    -0.10700
C1171       C  0.60777928  0.00774080  0.62588189    -0.11500
C1172       C  0.62694353  0.00026799  0.61774286     0.20000
C1173       C  0.64357460  0.01317759  0.61935994    -0.13600
C1174       C  0.64106507  0.03340725  0.62865198    -0.11900
C1175       C  0.62951849  0.97958948  0.60661378     0.01000
C1176       C  0.63175146  0.96254125  0.59597860    -0.31900
C1177       C  0.61947613  0.06207728  0.64436546     0.02300
C1178       C  0.61894287  0.08003374  0.64927648    -0.33500
H1179       H  0.59035635  0.03362923  0.64099356     0.13400
H1180       H  0.59477297  0.99796262  0.62464347     0.13200
H1181       H  0.65845727  0.00766209  0.61304373     0.13100
H1182       H  0.65405145  0.04323214  0.62937448     0.12100
C1183       C  0.49417443  0.87181054  0.63840050     0.18400
C1184       C  0.50463604  0.88958642  0.64623991    -0.10700
C1185       C  0.52461507  0.89193321  0.63516524    -0.11500
C1186       C  0.53428555  0.87653162  0.61610370     0.20000
C1187       C  0.52376417  0.85882496  0.60793134    -0.13600
C1188       C  0.50377184  0.85647545  0.61901735    -0.11900
C1189       C  0.55528121  0.87839937  0.60683277     0.01000
C1190       C  0.57318401  0.87899436  0.60154704    -0.31900
C1191       C  0.47377019  0.86925203  0.65088624     0.02300
C1192       C  0.45681286  0.86764053  0.66221545    -0.33500
H1193       H  0.49741728  0.90154147  0.66125612     0.13400
H1194       H  0.53259817  0.90562820  0.64190942     0.13200
H1195       H  0.53109728  0.84673580  0.59345595     0.13100
H1196       H  0.49588723  0.84264352  0.61282690     0.12100
C1197       C  0.76567132  0.89661001  0.41895712     0.18400
C1198       C  0.76786421  0.89466203  0.45664359    -0.10700
C1199       C  0.75096303  0.89466874  0.47933113    -0.11500
C1200       C  0.73167968  0.89663128  0.46455952     0.20000
C1201       C  0.72949222  0.89860663  0.42686262    -0.13600
C1202       C  0.74639620  0.89860477  0.40417311    -0.11900
C1203       C  0.71407664  0.89672343  0.48770939     0.01000
C1204       C  0.69814195  0.89720107  0.50355843    -0.31900
C1205       C  0.78329551  0.89691332  0.39592113     0.02300
C1206       C  0.79925944  0.89759351  0.38023637    -0.33500
H1207       H  0.78266546  0.89319185  0.46851576     0.13400
H1208       H  0.75294218  0.89317462  0.50834011     0.13200
H1209       H  0.71470062  0.90018034  0.41499955     0.13100
H1210       H  0.74443227  0.90020813  0.37517694     0.12100
C1211       C  0.62711889  0.00290097  0.11200850     0.18400
C1212       C  0.60934889  0.01333938  0.10435161    -0.10700
C1213       C  0.60729070  0.03348313  0.11470511    -0.11500
C1214       C  0.62297899  0.04332355  0.13285275     0.20000
C1215       C  0.64063055  0.03280472  0.14093369    -0.13600
C1216       C  0.64268951  0.01267482  0.13057888    -0.11900
C1217       C  0.62141619  0.06439768  0.14174198     0.01000
C1218       C  0.62113577  0.08225578  0.14763828    -0.31900
C1219       C  0.62956785  0.98238341  0.09998920     0.02300
C1220       C  0.63152420  0.96534915  0.08917246    -0.33500
H1221       H  0.59719639  0.00598724  0.08999159     0.13400
H1222       H  0.59359961  0.04144322  0.10813658     0.13200
H1223       H  0.65290780  0.04024395  0.15479754     0.13100
H1224       H  0.65650852  0.00481793  0.13665338     0.12100
C1225       C  0.53548488  0.87881797  0.11922170     0.18400
C1226       C  0.52172243  0.89433153  0.11287694    -0.10700
C1227       C  0.50152376  0.89188940  0.12267048    -0.11500
C1228       C  0.49503843  0.87393266  0.13883260     0.20000
C1229       C  0.50877602  0.85839470  0.14475632    -0.13600
C1230       C  0.52890659  0.86082637  0.13498580    -0.11900
C1231       C  0.47448799  0.87150786  0.15034040     0.01000
C1232       C  0.45756721  0.86912567  0.16127668    -0.31900
C1233       C  0.55649109  0.88133278  0.11088270     0.02300
C1234       C  0.57442553  0.88194790  0.10626377    -0.33500
H1235       H  0.52663032  0.90833545  0.10078852     0.13400
H1236       H  0.49104384  0.90403636  0.11801536     0.13200
H1237       H  0.50396776  0.84447497  0.15728977     0.13100
H1238       H  0.53940291  0.84875033  0.14011681     0.12100
C1239       C  0.63301851  0.88655505  0.77279918     0.18400
C1240       C  0.63950504  0.90257708  0.79439436    -0.10700
C1241       C  0.63799214  0.90132086  0.83209596    -0.11500
C1242       C  0.62996907  0.88405696  0.84839795     0.20000
C1243       C  0.62347260  0.86800769  0.82682438    -0.13600
C1244       C  0.62498711  0.86926643  0.78906707    -0.11900
C1245       C  0.62865989  0.88303631  0.88726236     0.01000
C1246       C  0.62890470  0.88443698  0.91981345    -0.31900
C1247       C  0.63462093  0.88773368  0.73398724     0.02300
C1248       C  0.63532891  0.88729503  0.70137092    -0.33500
H1249       H  0.64573980  0.91599442  0.78211967     0.13400
H1250       H  0.64309836  0.91380359  0.84855860     0.13200
H1251       H  0.61728589  0.85457932  0.83913614     0.13100
H1252       H  0.61993210  0.85677638  0.77257359     0.12100
C1253       C  0.63597822  0.88912066  0.34749467     0.18400
C1254       C  0.65466811  0.88731689  0.33036023    -0.10700
C1255       C  0.65619436  0.88969586  0.29280020    -0.11500
C1256       C  0.63904463  0.89399505  0.27226962     0.20000
C1257       C  0.62034754  0.89569910  0.28939821    -0.13600
C1258       C  0.61882067  0.89331661  0.32694089    -0.11900
C1259       C  0.64031513  0.89548144  0.23344936     0.01000
C1260       C  0.64008344  0.89463416  0.20083605    -0.31900
C1261       C  0.63465485  0.88775934  0.38631316     0.02300
C1262       C  0.63456385  0.88832672  0.41894281    -0.33500
H1263       H  0.66805113  0.88419509  0.34605141     0.13400
H1264       H  0.67068821  0.88812372  0.27979305     0.13200
H1265       H  0.60695702  0.89879675  0.27371555     0.13100
H1266       H  0.60431981  0.89485992  0.33993537     0.12100
C1267       C  0.72953539  0.89663200  0.96305337     0.18400
C1268       C  0.73718224  0.87841653  0.94989412    -0.10700
C1269       C  0.75412779  0.87829817  0.92731147    -0.11500
C1270       C  0.76348717  0.89640610  0.91753835     0.20000
C1271       C  0.75589045  0.91458800  0.93086175    -0.13600
C1272       C  0.73897648  0.91470559  0.95342801    -0.11900
C1273       C  0.78142065  0.89639677  0.89539344     0.01000
C1274       C  0.79750784  0.89710497  0.88019965    -0.31900
C1275       C  0.71137008  0.89694031  0.98457271     0.02300
C1276       C  0.69514773  0.89768389  0.99928311    -0.33500
H1277       H  0.72997107  0.86433568  0.95687172     0.13400
H1278       H  0.75992739  0.86411276  0.91752338     0.13200
H1279       H  0.76306250  0.92868327  0.92384004     0.13100
H1280       H  0.73317450  0.92890536  0.96314720     0.12100
C1281       C  0.84567408  0.77496464  0.82590302     0.18400
C1282       C  0.84141409  0.76002050  0.85151064    -0.10700
C1283       C  0.84127263  0.73977297  0.84113575    -0.11500
C1284       C  0.84537780  0.73435894  0.80511702     0.20000
C1285       C  0.84932773  0.74933211  0.77944398    -0.13600
C1286       C  0.84945163  0.76955080  0.78979555    -0.11900
C1287       C  0.84708836  0.71343426  0.79540622     0.01000
C1288       C  0.85018057  0.69569745  0.79155246    -0.31900
C1289       C  0.84703812  0.79581615  0.83635837     0.02300
C1290       C  0.84960123  0.81367353  0.83990941    -0.33500
H1291       H  0.83855854  0.76397522  0.87951231     0.13400
H1292       H  0.83838936  0.72831868  0.86134553     0.13200
H1293       H  0.85271982  0.74536509  0.75164233     0.13100
H1294       H  0.85285624  0.78095721  0.76975735     0.12100
C1295       C  0.84687270  0.77513564  0.32854317     0.18400
C1296       C  0.84474158  0.76978745  0.29194399    -0.10700
C1297       C  0.84480365  0.74954577  0.28157104    -0.11500
C1298       C  0.84698752  0.73447453  0.30774216     0.20000
C1299       C  0.84876343  0.73980597  0.34442241    -0.13600
C1300       C  0.84872748  0.76005588  0.35479408    -0.11900
C1301       C  0.84852834  0.71361693  0.29721068     0.01000
C1302       C  0.85130715  0.69584823  0.29271889    -0.31900
C1303       C  0.84844944  0.79609817  0.33836639     0.02300
C1304       C  0.85113979  0.81398151  0.34145279    -0.33500
H1305       H  0.84344804  0.78129667  0.27132426     0.13400
H1306       H  0.84353597  0.74568356  0.25314616     0.13200
H1307       H  0.85057749  0.72831175  0.36493862     0.13100
H1308       H  0.85053923  0.76394281  0.38311356     0.12100
C1309       C  0.86426668  0.62338533  0.59833730     0.18400
C1310       C  0.87858211  0.61290978  0.57800631    -0.10700
C1311       C  0.87610791  0.61070136  0.54059785    -0.11500
C1312       C  0.85925249  0.61886093  0.52338362     0.20000
C1313       C  0.84492749  0.62935003  0.54370455    -0.13600
C1314       C  0.84740012  0.63155438  0.58113685    -0.11900
C1315       C  0.85734665  0.61752952  0.48463592     0.01000
C1316       C  0.85710833  0.61824449  0.45201572    -0.31900
C1317       C  0.86619906  0.62457605  0.63709031     0.02300
C1318       C  0.86647425  0.62357329  0.66968002    -0.33500
H1319       H  0.89157112  0.60635950  0.59109066     0.13400
H1320       H  0.88736534  0.60272532  0.52508676     0.13200
H1321       H  0.83192991  0.63588080  0.53061387     0.13100
H1322       H  0.83613305  0.63950603  0.59666935     0.12100
C1323       C  0.85591151  0.61747422  0.02271270     0.18400
C1324       C  0.87467211  0.61604858  0.03968846    -0.10700
C1325       C  0.87622648  0.61822328  0.07726574    -0.11500
C1326       C  0.85903635  0.62192364  0.09804674     0.20000
C1327       C  0.84024228  0.62323950  0.08110647    -0.13600
C1328       C  0.83868792  0.62107258  0.04349115    -0.11900
C1329       C  0.86053374  0.62337708  0.13686945     0.01000
C1330       C  0.86102674  0.62271916  0.16950418    -0.31900
C1331       C  0.85464829  0.61648261  0.98383534     0.02300
C1332       C  0.85496230  0.61753483  0.95124047    -0.33500
H1333       H  0.88810703  0.61342109  0.02384271     0.13400
H1334       H  0.89080041  0.61699705  0.09010016     0.13200
H1335       H  0.82682013  0.62591341  0.09696008     0.13100
H1336       H  0.82412864  0.62235286  0.03061829     0.12100
C1337       C  0.65243596  0.77457231  0.55610401     0.18400
C1338       C  0.64777013  0.76917774  0.59192287    -0.10700
C1339       C  0.64832625  0.74900826  0.60274603    -0.11500
C1340       C  0.65360699  0.73403221  0.57786583     0.20000
C1341       C  0.65872418  0.73946363  0.54226516    -0.13600
C1342       C  0.65814661  0.75964498  0.53142244    -0.11900
C1343       C  0.65200073  0.71303346  0.58760208     0.01000
C1344       C  0.64881605  0.69525116  0.59129686    -0.31900
C1345       C  0.65032975  0.79527972  0.54471921     0.02300
C1346       C  0.64692039  0.81290340  0.53955231    -0.33500
H1347       H  0.64325319  0.78052921  0.61129431     0.13400
H1348       H  0.64414277  0.74505639  0.63021115     0.13200
H1349       H  0.66264706  0.72803635  0.52261843     0.13100
H1350       H  0.66171777  0.76353595  0.50365489     0.12100
C1351       C  0.62787307  0.50753432  0.51978228     0.18400
C1352       C  0.64252915  0.49737747  0.49971213    -0.10700
C1353       C  0.63951938  0.47731202  0.48982901    -0.11500
C1354       C  0.62184019  0.46731541  0.49994265     0.20000
C1355       C  0.60713130  0.47751265  0.51983358    -0.13600
C1356       C  0.61013927  0.49758220  0.52970997    -0.11900
C1357       C  0.61935344  0.44633577  0.49155309     0.01000
C1358       C  0.61861906  0.42846773  0.48633893    -0.31900
C1359       C  0.63109002  0.52805110  0.53065890     0.02300
C1360       C  0.63334092  0.54515002  0.54063987    -0.33500
H1361       H  0.65631922  0.50490375  0.49197802     0.13400
H1362       H  0.65106448  0.46952611  0.47469641     0.13200
H1363       H  0.59347832  0.46989605  0.52805238     0.13100
H1364       H  0.59873147  0.50528245  0.54531949     0.12100
C1365       C  0.49531635  0.63386676  0.49243627     0.18400
C1366       C  0.50744806  0.61933405  0.47586873    -0.10700
C1367       C  0.52754071  0.61715112  0.48634656    -0.11500
C1368       C  0.53564234  0.62946526  0.51351495     0.20000
C1369       C  0.52344487  0.64383128  0.53037116    -0.13600
C1370       C  0.50335394  0.64601551  0.51989157    -0.11900
C1371       C  0.55668484  0.62813376  0.52267351     0.01000
C1372       C  0.57456177  0.62802698  0.52831361    -0.31900
C1373       C  0.47480447  0.63657503  0.48070502     0.02300
C1374       C  0.45778575  0.63870399  0.47000741    -0.33500
H1375       H  0.50144547  0.60986025  0.45457749     0.13400
H1376       H  0.53682073  0.60607380  0.47291934     0.13200
H1377       H  0.52954040  0.65353284  0.55123568     0.13100
H1378       H  0.49416746  0.65732249  0.53289043     0.12100
C1379       C  0.73226793  0.61145009  0.66675378     0.18400
C1380       C  0.75006868  0.60266554  0.65425094    -0.10700
C1381       C  0.76725313  0.60263892  0.67617785    -0.11500
C1382       C  0.76677233  0.61133925  0.71081925     0.20000
C1383       C  0.74898028  0.62013259  0.72330658    -0.13600
C1384       C  0.73179982  0.62016240  0.70138136    -0.11900
C1385       C  0.78466187  0.61142081  0.73303744     0.01000
C1386       C  0.80069471  0.61111576  0.74842132    -0.31900
C1387       C  0.71425141  0.61102019  0.64486283     0.02300
C1388       C  0.69804133  0.61048648  0.63008989    -0.33500
H1389       H  0.75064504  0.59577897  0.62767604     0.13400
H1390       H  0.78091717  0.59582123  0.66612814     0.13200
H1391       H  0.74838015  0.62694139  0.74994447     0.13100
H1392       H  0.71811516  0.62690634  0.71149773     0.12100
C1393       C  0.64670325  0.77400782  0.04700890     0.18400
C1394       C  0.63171505  0.76112674  0.03380144    -0.10700
C1395       C  0.63128151  0.74090816  0.04438090    -0.11500
C1396       C  0.64576679  0.73337881  0.06841581     0.20000
C1397       C  0.66100129  0.74615157  0.08102329    -0.13600
C1398       C  0.66143791  0.76638410  0.07042795    -0.11900
C1399       C  0.64484402  0.71256696  0.07980120     0.01000
C1400       C  0.64269031  0.69477483  0.08548713    -0.31900
C1401       C  0.64577867  0.79535014  0.03969201     0.02300
C1402       C  0.64372052  0.81340131  0.03881037    -0.33500
H1403       H  0.62010184  0.76680891  0.01601395     0.13400
H1404       H  0.61946528  0.73121181  0.03423121     0.13200
H1405       H  0.67235280  0.74056064  0.09943124     0.13100
H1406       H  0.67299351  0.77619110  0.08117456     0.12100
C1407       C  0.62518054  0.46484428  0.00060786     0.18400
C1408       C  0.60877913  0.47646783  0.01166812    -0.10700
C1409       C  0.61160293  0.49651978  0.02198202    -0.11500
C1410       C  0.63084671  0.50510687  0.02135029     0.20000
C1411       C  0.64725911  0.49349506  0.01020191    -0.13600
C1412       C  0.64443295  0.47343211  0.99987773    -0.11900
C1413       C  0.63366769  0.52573144  0.03249709     0.01000
C1414       C  0.63535277  0.54295651  0.04246249    -0.31900
C1415       C  0.62245732  0.44391078  0.99155748     0.02300
C1416       C  0.62127608  0.42605653  0.98604193    -0.33500
H1417       H  0.59385216  0.46998939  0.01262128     0.13400
H1418       H  0.59879707  0.50529574  0.03064257     0.13200
H1419       H  0.66222392  0.49990203  0.00968106     0.13100
H1420       H  0.65727041  0.46457307  0.99164029     0.12100
C1421       C  0.53652550  0.62808270  0.00599473     0.18400
C1422       C  0.53127570  0.64245914  0.97992991    -0.10700
C1423       C  0.51115692  0.64521151  0.97022983    -0.11500
C1424       C  0.49606155  0.63362704  0.98652599     0.20000
C1425       C  0.50126104  0.61933198  0.01284251    -0.13600
C1426       C  0.52143444  0.61657203  0.02256873    -0.11900
C1427       C  0.47536621  0.63622460  0.97565094     0.01000
C1428       C  0.45823393  0.63837200  0.96548801    -0.31900
C1429       C  0.55742388  0.62530506  0.01527141     0.02300
C1430       C  0.57529512  0.62453133  0.02087923    -0.33500
H1431       H  0.54276580  0.65148839  0.96695410     0.13400
H1432       H  0.50738871  0.65629705  0.94986065     0.13200
H1433       H  0.48975480  0.61026009  0.02566204     0.13100
H1434       H  0.52525437  0.60543540  0.04281122     0.12100
C1435       C  0.63967328  0.61593475  0.85893553     0.18400
C1436       C  0.65072105  0.63061590  0.84034703    -0.10700
C1437       C  0.64815436  0.63314423  0.80302335    -0.11500
C1438       C  0.63443924  0.62108472  0.78414499     0.20000
C1439       C  0.62326006  0.60650528  0.80277275    -0.13600
C1440       C  0.62582579  0.60397838  0.84012245    -0.11900
C1441       C  0.63288936  0.62267547  0.74536750     0.01000
C1442       C  0.63298719  0.62207003  0.71273118    -0.31900
C1443       C  0.64170796  0.61404306  0.89759765     0.02300
C1444       C  0.64207921  0.61466723  0.93022493    -0.33500
H1445       H  0.66128934  0.64011121  0.85470835     0.13400
H1446       H  0.65698499  0.64434912  0.78884866     0.13200
H1447       H  0.61272268  0.59698656  0.78838612     0.13100
H1448       H  0.61702623  0.59275049  0.85430198     0.12100
C1449       C  0.63452972  0.61812447  0.35889897     0.18400
C1450       C  0.65121790  0.62386446  0.33820521    -0.10700
C1451       C  0.64947746  0.62595890  0.30061808    -0.11500
C1452       C  0.63101146  0.62242092  0.28352236     0.20000
C1453       C  0.61432407  0.61663447  0.30419694    -0.13600
C1454       C  0.61606486  0.61454251  0.34181013    -0.11900
C1455       C  0.62956833  0.62360087  0.24462761     0.01000
C1456       C  0.62970199  0.62267925  0.21198366    -0.31900
C1457       C  0.63609337  0.61698841  0.39778028     0.02300
C1458       C  0.63677566  0.61786933  0.43040634    -0.33500
H1459       H  0.66552860  0.62681047  0.35113575     0.13400
H1460       H  0.66253721  0.63024559  0.28488157     0.13200
H1461       H  0.60002444  0.61366694  0.29124590     0.13100
H1462       H  0.60301788  0.61023440  0.35755794     0.12100
C1463       C  0.76357404  0.61250145  0.22026041     0.18400
C1464       C  0.76491176  0.60710541  0.18357613    -0.10700
C1465       C  0.74786505  0.60753527  0.16135018    -0.11500
C1466       C  0.72927383  0.61340092  0.17553252     0.20000
C1467       C  0.72785998  0.61863938  0.21233146    -0.13600
C1468       C  0.74494473  0.61821496  0.23460340    -0.11900
C1469       C  0.71158409  0.61355850  0.15267243     0.01000
C1470       C  0.69593140  0.61294170  0.13599231    -0.31900
C1471       C  0.78150997  0.61243081  0.24247566     0.02300
C1472       C  0.79787142  0.61197682  0.25676780    -0.33500
H1473       H  0.77918709  0.60263348  0.17208549     0.13400
H1474       H  0.74919285  0.60330025  0.13311016     0.13200
H1475       H  0.71356117  0.62305693  0.22379411     0.13100
H1476       H  0.74363839  0.62240010  0.26287120     0.12100
C1477       C  0.26698701  0.85801372  0.70352884     0.18400
C1478       C  0.25281033  0.84919643  0.72664185    -0.10700
C1479       C  0.23254739  0.84851695  0.71654900    -0.11500
C1480       C  0.22635169  0.85659214  0.68325516     0.20000
C1481       C  0.24052342  0.86546178  0.66020759    -0.13600
C1482       C  0.26076993  0.86614004  0.67028903    -0.11900
C1483       C  0.20529485  0.85700933  0.67417302     0.01000
C1484       C  0.18732884  0.85877840  0.67143529    -0.31900
C1485       C  0.28796849  0.85864368  0.71323746     0.02300
C1486       C  0.30596311  0.86019637  0.71617498    -0.33500
H1487       H  0.25739482  0.84291173  0.75241212     0.13400
H1488       H  0.22168254  0.84187108  0.73484911     0.13200
H1489       H  0.23590691  0.87200643  0.63466166     0.13100
H1490       H  0.27158162  0.87304664  0.65219493     0.12100
C1491       C  0.95803584  0.87797445  0.75969419     0.18400
C1492       C  0.96704453  0.88988654  0.73293119    -0.10700
C1493       C  0.98721237  0.88699300  0.72384942    -0.11500
C1494       C  0.99847777  0.87215696  0.74142982     0.20000
C1495       C  0.98949815  0.86026924  0.76828630    -0.13600
C1496       C  0.96930878  0.86316641  0.77737808    -0.11900
C1497       C  0.01916104  0.86913172  0.73152454     0.01000
C1498       C  0.03635396  0.86729183  0.72185046    -0.31900
C1499       C  0.93702735  0.88032058  0.76780665     0.02300
C1500       C  0.91917430  0.88120044  0.77297787    -0.33500
H1501       H  0.95844201  0.90126987  0.71888048     0.13400
H1502       H  0.99399009  0.89623627  0.70298362     0.13200
H1503       H  0.99804533  0.84872089  0.78200117     0.13100
H1504       H  0.96244887  0.85376291  0.79791983     0.12100
C1505       C  0.12665699  0.00701266  0.76644020     0.18400
C1506       C  0.10794334  0.99780467  0.77194210    -0.10700
C1507       C  0.10534377  0.97739234  0.76402949    -0.11500
C1508       C  0.12144402  0.96611988  0.75055923     0.20000
C1509       C  0.14009570  0.97537840  0.74484895    -0.13600
C1510       C  0.14269177  0.99575865  0.75275299    -0.11900
C1511       C  0.11918235  0.94492223  0.74380686     0.01000
C1512       C  0.11863083  0.92697901  0.73934310    -0.31900
C1513       C  0.12964914  0.02779365  0.77593205     0.02300
C1514       C  0.13241423  0.04495972  0.78517358    -0.33500
H1515       H  0.09545638  0.00633508  0.78268280     0.13400
H1516       H  0.09088777  0.97037136  0.76875622     0.13200
H1517       H  0.15268463  0.96679157  0.73465385     0.13100
H1518       H  0.15724489  0.00268397  0.74856032     0.12100
C1519       C  0.26881399  0.84984720  0.20126168     0.18400
C1520       C  0.25389383  0.85018149  0.22795618    -0.10700
C1521       C  0.23363357  0.85049319  0.21796659    -0.11500
C1522       C  0.22815700  0.85051070  0.18124758     0.20000
C1523       C  0.24306806  0.84985441  0.15453089    -0.13600
C1524       C  0.26334342  0.84951253  0.16452950    -0.11900
C1525       C  0.20728202  0.85249018  0.17158015     0.01000
C1526       C  0.18950703  0.85565590  0.16900572    -0.31900
C1527       C  0.28971833  0.85123674  0.21108286     0.02300
C1528       C  0.30751518  0.85404241  0.21460203    -0.33500
H1529       H  0.25791179  0.85062460  0.25639181     0.13400
H1530       H  0.22223374  0.85115894  0.23887774     0.13200
H1531       H  0.23905433  0.85002217  0.12608500     0.13100
H1532       H  0.27476567  0.84943032  0.14362148     0.12100
C1533       C  0.00187746  0.87258501  0.24821106     0.18400
C1534       C  0.99007888  0.85574252  0.25653761    -0.10700
C1535       C  0.96982349  0.85809220  0.26575379    -0.11500
C1536       C  0.96123935  0.87729815  0.26671302     0.20000
C1537       C  0.97313548  0.89416148  0.25907214    -0.13600
C1538       C  0.99338836  0.89181259  0.24986485    -0.11900
C1539       C  0.94003262  0.87955440  0.27355830     0.01000
C1540       C  0.92204623  0.88059291  0.27725073    -0.31900
C1541       C  0.02240593  0.87012872  0.23650938     0.02300
C1542       C  0.03936948  0.86839508  0.22535901    -0.33500
H1543       H  0.99643452  0.84079611  0.25529100     0.13400
H1544       H  0.96077412  0.84492165  0.27146220     0.13200
H1545       H  0.96667193  0.90907362  0.25957430     0.13100
H1546       H  0.00232810  0.90495107  0.24342015     0.12100
C1547       C  0.12789208  0.00717123  0.26820325     0.18400
C1548       C  0.14028488  0.99902606  0.24128304    -0.10700
C1549       C  0.13805424  0.97890817  0.23095364    -0.11500
C1550       C  0.12339696  0.96683699  0.24744816     0.20000
C1551       C  0.11076468  0.97509165  0.27388815    -0.13600
C1552       C  0.11299534  0.99519947  0.28421452    -0.11900
C1553       C  0.12218854  0.94571540  0.23905768     0.01000
C1554       C  0.12213860  0.92776507  0.23443467    -0.31900
C1555       C  0.13070547  0.02763545  0.27999364     0.02300
C1556       C  0.13278722  0.04468323  0.29051613    -0.33500
H1557       H  0.15184462  0.00812821  0.22868732     0.13400
H1558       H  0.14798621  0.97267691  0.21062755     0.13200
H1559       H  0.09945463  0.96589250  0.28698684     0.13100
H1560       H  0.10331281  0.00132086  0.30503895     0.12100
C1561       C  0.10970632  0.86437208  0.90456972     0.18400
C1562       C  0.12009096  0.84972501  0.92430596    -0.10700
C1563       C  0.12289448  0.85202562  0.96164294    -0.11500
C1564       C  0.11542431  0.86904041  0.97940637     0.20000
C1565       C  0.10518119  0.88377385  0.95962947    -0.13600
C1566       C  0.10237893  0.88147322  0.92227759    -0.11900
C1567       C  0.11692993  0.87060194  0.01822127     0.01000
C1568       C  0.11615773  0.87052714  0.05086225    -0.31900
C1569       C  0.10765487  0.86242720  0.86588078     0.02300
C1570       C  0.10810913  0.86190562  0.83322779    -0.33500
H1571       H  0.12602663  0.83655664  0.91083701     0.13400
H1572       H  0.13068929  0.84045584  0.97670386     0.13200
H1573       H  0.09919376  0.89690986  0.97312687     0.13100
H1574       H  0.09453181  0.89301074  0.90722749     0.12100
C1575       C  0.11569496  0.87217841  0.47992146     0.18400
C1576       C  0.12588028  0.85661490  0.46225556    -0.10700
C1577       C  0.12426449  0.85440655  0.42468171    -0.11500
C1578       C  0.11237670  0.86769113  0.40457874     0.20000
C1579       C  0.10228654  0.88334679  0.42219903    -0.13600
C1580       C  0.10389852  0.88555330  0.45980782    -0.11900
C1581       C  0.11130864  0.86576093  0.36575516     0.01000
C1582       C  0.11215738  0.86496694  0.33314068    -0.31900
C1583       C  0.11621803  0.87349570  0.51885171     0.02300
C1584       C  0.11493279  0.87299232  0.55142930    -0.33500
H1585       H  0.13489361  0.84607735  0.47756251     0.13400
H1586       H  0.13226641  0.84234947  0.41131924     0.13200
H1587       H  0.09318637  0.89381045  0.40689749     0.13100
H1588       H  0.09580808  0.89753481  0.47321780     0.12100
C1589       C  0.26836889  0.65737095  0.92960230     0.18400
C1590       C  0.26289403  0.65672050  0.96630334    -0.10700
C1591       C  0.24264421  0.65713808  0.97637543    -0.11500
C1592       C  0.22769543  0.65824952  0.94980872     0.20000
C1593       C  0.23315476  0.65926003  0.91309388    -0.13600
C1594       C  0.25343510  0.65881745  0.90300279    -0.11900
C1595       C  0.20677900  0.65692955  0.95976614     0.01000
C1596       C  0.18900414  0.65415595  0.96392381    -0.31900
C1597       C  0.28926469  0.65543902  0.91980425     0.02300
C1598       C  0.30708204  0.65245973  0.91697286    -0.33500
H1599       H  0.27428811  0.65547739  0.98713058     0.13400
H1600       H  0.23864702  0.65617424  0.00478005     0.13200
H1601       H  0.22172102  0.65995432  0.89224975     0.13100
H1602       H  0.25742851  0.65920996  0.87455325     0.12100
C1603       C  0.00096881  0.63462200  0.89272922     0.18400
C1604       C  0.99136672  0.61591435  0.89558905    -0.10700
C1605       C  0.97111732  0.61387880  0.88591604    -0.11500
C1606       C  0.96034741  0.63053836  0.87329533     0.20000
C1607       C  0.97000290  0.64919423  0.87017147    -0.13600
C1608       C  0.99023138  0.65122868  0.87984122    -0.11900
C1609       C  0.93923870  0.62879132  0.86489211     0.01000
C1610       C  0.92136038  0.62841662  0.85933993    -0.31900
C1611       C  0.02163972  0.63691420  0.90385322     0.02300
C1612       C  0.03875999  0.63894501  0.91410606    -0.33500
H1613       H  0.99946880  0.60296672  0.90561610     0.13400
H1614       H  0.96381951  0.59939751  0.88864429     0.13200
H1615       H  0.96183357  0.66221523  0.86063911     0.13100
H1616       H  0.99743641  0.66578247  0.87760157     0.12100
C1617       C  0.10643310  0.77175324  0.09189215     0.18400
C1618       C  0.12099615  0.75671847  0.09568265    -0.10700
C1619       C  0.12103556  0.74010563  0.07225250    -0.11500
C1620       C  0.10657582  0.73840757  0.04471182     0.20000
C1621       C  0.09210033  0.75350385  0.04083122    -0.13600
C1622       C  0.09205787  0.77009341  0.06423829    -0.11900
C1623       C  0.10595774  0.72068824  0.02187113     0.01000
C1624       C  0.10505833  0.70475935  0.00604271    -0.31900
C1625       C  0.10644237  0.78922239  0.11535681     0.02300
C1626       C  0.10578016  0.80508045  0.13142137    -0.33500
H1627       H  0.13228166  0.75781352  0.11673067     0.13400
H1628       H  0.13224362  0.72850762  0.07579732     0.13200
H1629       H  0.08074777  0.75237942  0.01990567     0.13100
H1630       H  0.08078037  0.78163392  0.06078790     0.12100
C1631       C  0.22853794  0.65592676  0.45001366     0.18400
C1632       C  0.23415974  0.64724869  0.41688347    -0.10700
C1633       C  0.25423184  0.64762746  0.40566404    -0.11500
C1634       C  0.26885714  0.65675079  0.42743252     0.20000
C1635       C  0.26322202  0.66563585  0.46039391    -0.13600
C1636       C  0.24312014  0.66525094  0.47163838    -0.11900
C1637       C  0.28981909  0.65536814  0.41779691     0.01000
C1638       C  0.30762608  0.65246685  0.41459974    -0.31900
C1639       C  0.20781084  0.65490481  0.46144682     0.02300
C1640       C  0.18997998  0.65255669  0.46590060    -0.33500
H1641       H  0.22304512  0.63995684  0.39991581     0.13400
H1642       H  0.25839436  0.64047300  0.38039723     0.13200
H1643       H  0.27442771  0.67250718  0.47772572     0.13100
H1644       H  0.23901169  0.67198126  0.49730406     0.12100
C1645       C  0.96077301  0.62955507  0.37449938     0.18400
C1646       C  0.97515560  0.63491498  0.34847097    -0.10700
C1647       C  0.99529289  0.63749604  0.35848845    -0.11500
C1648       C  0.00120359  0.63476146  0.39461667     0.20000
C1649       C  0.98685068  0.62921934  0.42059390    -0.13600
C1650       C  0.96671798  0.62663580  0.41057739    -0.11900
C1651       C  0.02189761  0.63784012  0.40510930     0.01000
C1652       C  0.03911156  0.64037729  0.41452792    -0.31900
C1653       C  0.93981515  0.62799028  0.36467407     0.02300
C1654       C  0.92201140  0.62779778  0.35823334    -0.33500
H1655       H  0.97076987  0.63732500  0.32054373     0.13400
H1656       H  0.00621294  0.64178444  0.33813556     0.13200
H1657       H  0.99118702  0.62706040  0.44861884     0.13100
H1658       H  0.95575667  0.62259650  0.43103064     0.12100
C1659       C  0.11001125  0.64655233  0.73325362     0.18400
C1660       C  0.10908557  0.62762834  0.71669679    -0.10700
C1661       C  0.11127707  0.62590745  0.67914959    -0.11500
C1662       C  0.11450049  0.64310224  0.65806890     0.20000
C1663       C  0.11517914  0.66204851  0.67457377    -0.13600
C1664       C  0.11299081  0.66376918  0.71211829    -0.11900
C1665       C  0.11626983  0.64149619  0.61936984     0.01000
C1666       C  0.11593291  0.64136877  0.58675039    -0.31900
C1667       C  0.10930937  0.64806589  0.77207511     0.02300
C1668       C  0.11069212  0.64815186  0.80460778    -0.33500
H1669       H  0.10691803  0.61420729  0.73285121     0.13400
H1670       H  0.11052195  0.61121315  0.66660435     0.13200
H1671       H  0.11745747  0.67545920  0.65843923     0.13100
H1672       H  0.11386022  0.67845308  0.72468008     0.12100
C1673       C  0.11357749  0.64562973  0.23317212     0.18400
C1674       C  0.11030782  0.66238658  0.21104363    -0.10700
C1675       C  0.11196688  0.66060187  0.17340619    -0.11500
C1676       C  0.11697200  0.64208517  0.15777464     0.20000
C1677       C  0.12037763  0.62536554  0.17991592    -0.13600
C1678       C  0.11872256  0.62715137  0.21754911    -0.11900
C1679       C  0.11767646  0.64018922  0.11898475     0.01000
C1680       C  0.11646706  0.63992223  0.08642109    -0.31900
C1681       C  0.11228188  0.64736488  0.27194612     0.02300
C1682       C  0.11290901  0.64752268  0.30457227    -0.33500
H1683       H  0.10646156  0.67677118  0.22284247     0.13400
H1684       H  0.10920877  0.67360509  0.15648183     0.13200
H1685       H  0.12416002  0.61096522  0.16811165     0.13100
H1686       H  0.12142169  0.61413280  0.23446323     0.12100
C1687       C  0.10649777  0.77301643  0.58844933     0.18400
C1688       C  0.12170992  0.75862858  0.59192799    -0.10700
C1689       C  0.12233491  0.74208558  0.56842517    -0.11500
C1690       C  0.10781935  0.73984332  0.54113442     0.20000
C1691       C  0.09270151  0.75431099  0.53751837    -0.13600
C1692       C  0.09207512  0.77083720  0.56100361    -0.11900
C1693       C  0.10769153  0.72206740  0.51855208     0.01000
C1694       C  0.10692577  0.70599722  0.50327856    -0.31900
C1695       C  0.10587996  0.79034061  0.61211569     0.02300
C1696       C  0.10479474  0.80602812  0.62855846    -0.33500
H1697       H  0.13302790  0.76015720  0.61283304     0.13400
H1698       H  0.13401043  0.73093972  0.57177254     0.13200
H1699       H  0.08128407  0.75271357  0.51680420     0.13100
H1700       H  0.08029887  0.78189353  0.55782468     0.12100
C1701       C  0.14977069  0.23398257  0.83050933     0.18400
C1702       C  0.14650579  0.24863994  0.85707212    -0.10700
C1703       C  0.14579065  0.26897506  0.84741650    -0.11500
C1704       C  0.14828381  0.27481074  0.81113137     0.20000
C1705       C  0.15189431  0.26018273  0.78466467    -0.13600
C1706       C  0.15263129  0.23984764  0.79432751    -0.11900
C1707       C  0.14623480  0.29571237  0.80127418     0.01000
C1708       C  0.14330845  0.31349057  0.79733805    -0.31900
C1709       C  0.14868578  0.21288490  0.83949478     0.02300
C1710       C  0.14618549  0.19495902  0.84215317    -0.33500
H1711       H  0.14409657  0.24433568  0.88505040     0.13400
H1712       H  0.14291000  0.28012488  0.86814809     0.13200
H1713       H  0.15376671  0.26444719  0.75653505     0.13100
H1714       H  0.15499446  0.22865742  0.77345245     0.12100
C1715       C  0.13074187  0.50274469  0.86727136     0.18400
C1716       C  0.14785890  0.51452057  0.87373115    -0.10700
C1717       C  0.14588873  0.53481678  0.88314710    -0.11500
C1718       C  0.12678728  0.54349492  0.88617713     0.20000
C1719       C  0.10968047  0.53164049  0.88024007    -0.13600
C1720       C  0.11164968  0.51135336  0.87083247    -0.11900
C1721       C  0.12479058  0.56470322  0.89377522     0.01000
C1722       C  0.12372492  0.58265734  0.89838287    -0.31900
C1723       C  0.13272055  0.48206069  0.85588495     0.02300
C1724       C  0.13407561  0.46493034  0.84524994    -0.33500
H1725       H  0.16271028  0.50809340  0.87102271     0.13400
H1726       H  0.15925186  0.54380345  0.88754043     0.13200
H1727       H  0.09483601  0.53814617  0.88236432     0.13100
H1728       H  0.09829216  0.50245448  0.86586336     0.12100
C1729       C  0.14441082  0.23526875  0.32520849     0.18400
C1730       C  0.13260798  0.24201609  0.29618722    -0.10700
C1731       C  0.13286963  0.26227969  0.28613198    -0.11500
C1732       C  0.14500934  0.27596449  0.30491492     0.20000
C1733       C  0.15677758  0.26925214  0.33403418    -0.13600
C1734       C  0.15652149  0.24895060  0.34410119    -0.11900
C1735       C  0.14438526  0.29705939  0.29594079     0.01000
C1736       C  0.14253130  0.31500820  0.29265365    -0.31900
C1737       C  0.14417516  0.21422433  0.33468058     0.02300
C1738       C  0.14259708  0.19621115  0.33751301    -0.33500
H1739       H  0.12317369  0.23159708  0.28134004     0.13400
H1740       H  0.12349992  0.26729338  0.26392099     0.13200
H1741       H  0.16602414  0.27973323  0.34910971     0.13100
H1742       H  0.16570987  0.24395158  0.36656073     0.12100
C1743       C  0.12683608  0.50283882  0.36907146     0.18400
C1744       C  0.11252567  0.51494424  0.35186853    -0.10700
C1745       C  0.11069067  0.53521180  0.36133644    -0.11500
C1746       C  0.12313596  0.54349942  0.38808706     0.20000
C1747       C  0.13732262  0.53135307  0.40553718    -0.13600
C1748       C  0.13915643  0.51107557  0.39606893    -0.11900
C1749       C  0.12202710  0.56465042  0.39622231     0.01000
C1750       C  0.12191657  0.58259166  0.40093754    -0.31900
C1751       C  0.12924696  0.48216419  0.35828150     0.02300
C1752       C  0.13140355  0.46505907  0.34815969    -0.33500
H1753       H  0.10296013  0.50878130  0.33086540     0.13400
H1754       H  0.09976823  0.54447660  0.34747172     0.13200
H1755       H  0.14713070  0.53761167  0.42607845     0.13100
H1756       H  0.15032110  0.50189373  0.40947179     0.12100
C1757       C  0.13439024  0.38549931  0.60202395     0.18400
C1758       C  0.11908283  0.39408400  0.58115590    -0.10700
C1759       C  0.12155947  0.39635853  0.54374488    -0.11500
C1760       C  0.13939058  0.39015979  0.52703283     0.20000
C1761       C  0.15466103  0.38146126  0.54785882    -0.13600
C1762       C  0.15218562  0.37919045  0.58529242    -0.11900
C1763       C  0.14145233  0.39171161  0.48830057     0.01000
C1764       C  0.14161783  0.39125123  0.45564278    -0.31900
C1765       C  0.13245897  0.38447683  0.64083274     0.02300
C1766       C  0.13219664  0.38559906  0.67343602    -0.33500
H1767       H  0.10533460  0.39917538  0.59383117     0.13400
H1768       H  0.10957257  0.40291340  0.52784739     0.13200
H1769       H  0.16842957  0.37642449  0.53518371     0.13100
H1770       H  0.16419435  0.37269504  0.60121741     0.12100
C1771       C  0.13391682  0.39022833  0.10202473     0.18400
C1772       C  0.15269116  0.38734694  0.08568789    -0.10700
C1773       C  0.15474596  0.38917649  0.04811309    -0.11500
C1774       C  0.13805592  0.39400314  0.02676291     0.20000
C1775       C  0.11931012  0.39698721  0.04312782    -0.13600
C1776       C  0.11725454  0.39515344  0.08069203    -0.11900
C1777       C  0.13980784  0.39465424  0.98793614     0.01000
C1778       C  0.14001188  0.39330746  0.95538143    -0.31900
C1779       C  0.13199942  0.38900389  0.14078359     0.02300
C1780       C  0.13156597  0.38960687  0.17340424    -0.33500
H1781       H  0.16571440  0.38369900  0.10198114     0.13400
H1782       H  0.16926973  0.38667605  0.03570834     0.13200
H1783       H  0.10627010  0.40056169  0.02682813     0.13100
H1784       H  0.10271252  0.39757461  0.09307768     0.12100
C1785       C  0.34914699  0.23422041  0.56015151     0.18400
C1786       C  0.33079535  0.24398263  0.56599778    -0.10700
C1787       C  0.33050158  0.26408709  0.57730225    -0.11500
C1788       C  0.34856287  0.27447265  0.58309967     0.20000
C1789       C  0.36688243  0.26465916  0.57737398    -0.13600
C1790       C  0.36717517  0.24461514  0.56604750    -0.11900
C1791       C  0.34853862  0.29557269  0.59208755     0.01000
C1792       C  0.35027417  0.31358429  0.59449838    -0.31900
C1793       C  0.34967429  0.21322461  0.55045356     0.02300
C1794       C  0.35150294  0.19528526  0.54696437    -0.33500
H1795       H  0.31675363  0.23605615  0.56191830     0.13400
H1796       H  0.31623678  0.27155458  0.58123394     0.13200
H1797       H  0.38095015  0.27256479  0.58135662     0.13100
H1798       H  0.38146437  0.23720077  0.56201191     0.12100
C1799       C  0.49769346  0.37469654  0.48488369     0.18400
C1800       C  0.48626338  0.39047448  0.47054222    -0.10700
C1801       C  0.46609794  0.39272060  0.48053239    -0.11500
C1802       C  0.45724550  0.37921705  0.50496602     0.20000
C1803       C  0.46869222  0.36347418  0.51933227    -0.13600
C1804       C  0.48884032  0.36122814  0.50934659    -0.11900
C1805       C  0.43626760  0.38097803  0.51426494     0.01000
C1806       C  0.41849409  0.38131649  0.52078537    -0.31900
C1807       C  0.51842771  0.37224791  0.47437953     0.02300
C1808       C  0.53574229  0.37027131  0.46529658    -0.33500
H1809       H  0.49290620  0.40096891  0.45154541     0.13400
H1810       H  0.45738991  0.40487396  0.46903036     0.13200
H1811       H  0.46200210  0.35285333  0.53804388     0.13100
H1812       H  0.49748110  0.34894844  0.52057020     0.12100
C1813       C  0.37087490  0.54222083  0.49834641     0.18400
C1814       C  0.35457734  0.53146676  0.48403118    -0.10700
C1815       C  0.35175922  0.51123422  0.49310758    -0.11500
C1816       C  0.36521594  0.50166391  0.51660886     0.20000
C1817       C  0.38154150  0.51240706  0.53080966    -0.13600
C1818       C  0.38435450  0.53262628  0.52174697    -0.11900
C1819       C  0.36213905  0.48099953  0.52694878     0.01000
C1820       C  0.36015093  0.46391415  0.53732357    -0.31900
C1821       C  0.37328771  0.56325260  0.49008692     0.02300
C1822       C  0.37414947  0.58109055  0.48445161    -0.33500
H1823       H  0.34397026  0.53876628  0.46612315     0.13400
H1824       H  0.33903560  0.50312484  0.48206029     0.13200
H1825       H  0.39199771  0.50519371  0.54911692     0.13100
H1826       H  0.39692094  0.54080517  0.53320740     0.12100
C1827       C  0.23072088  0.39507615  0.71876840     0.18400
C1828       C  0.22823597  0.39537755  0.68099942    -0.10700
C1829       C  0.24498552  0.39579295  0.65803118    -0.11500
C1830       C  0.26439873  0.39590054  0.67263213     0.20000
C1831       C  0.26690003  0.39560018  0.71042187    -0.13600
C1832       C  0.25013485  0.39519273  0.73341173    -0.11900
C1833       C  0.28181639  0.39647956  0.64918947     0.01000
C1834       C  0.29758718  0.39725614  0.63294818    -0.31900
C1835       C  0.21321045  0.39509201  0.74197841     0.02300
C1836       C  0.19712237  0.39580113  0.75714459    -0.33500
H1837       H  0.21331745  0.39537658  0.66929323     0.13400
H1838       H  0.24279030  0.39607957  0.62895059     0.13200
H1839       H  0.28182128  0.39573511  0.72211287     0.13100
H1840       H  0.25231343  0.39504909  0.76250119     0.12100
C1841       C  0.34684646  0.27406723  0.07658992     0.18400
C1842       C  0.36479997  0.26517144  0.06500909    -0.10700
C1843       C  0.36512745  0.24499331  0.05436767    -0.11500
C1844       C  0.34748056  0.23348536  0.05502567     0.20000
C1845       C  0.32945626  0.24239686  0.06632067    -0.13600
C1846       C  0.32912262  0.26264086  0.07694920    -0.11900
C1847       C  0.34835059  0.21222648  0.04700276     0.01000
C1848       C  0.35053359  0.19422451  0.04491053    -0.31900
C1849       C  0.34674887  0.29512411  0.08633725     0.02300
C1850       C  0.34871791  0.31308730  0.08992960    -0.33500
H1851       H  0.37858189  0.27384367  0.06425936     0.13400
H1852       H  0.37920575  0.23829674  0.04606971     0.13200
H1853       H  0.31573417  0.23364741  0.06732299     0.13100
H1854       H  0.31509814  0.26934051  0.08550161     0.12100
C1855       C  0.49988443  0.37251305  0.99132814     0.18400
C1856       C  0.49348403  0.36686315  0.02606238    -0.10700
C1857       C  0.47337864  0.36936811  0.03618129    -0.11500
C1858       C  0.45959240  0.37757758  0.01163563     0.20000
C1859       C  0.46601885  0.38326040  0.97694504    -0.13600
C1860       C  0.48609895  0.38075443  0.96683554    -0.11900
C1861       C  0.43871177  0.37947067  0.02131695     0.01000
C1862       C  0.42088298  0.38018238  0.02701787    -0.31900
C1863       C  0.52051672  0.36978557  0.98063079     0.02300
C1864       C  0.53765557  0.36774880  0.97068231    -0.33500
H1865       H  0.50399436  0.36044605  0.04521285     0.13400
H1866       H  0.46856517  0.36478359  0.06298261     0.13200
H1867       H  0.45547868  0.38948791  0.95763692     0.13100
H1868       H  0.49085009  0.38514932  0.93989023     0.12100
C1869       C  0.37170431  0.54155945  0.99391193     0.18400
C1870       C  0.38860383  0.52911698  0.99626334    -0.10700
C1871       C  0.38649946  0.50909116  0.00737386    -0.11500
C1872       C  0.36749161  0.50140418  0.01622543     0.20000
C1873       C  0.35058697  0.51379364  0.01342860    -0.13600
C1874       C  0.35268713  0.53378649  0.00231968    -0.11900
C1875       C  0.36534166  0.48099378  0.02893171     0.01000
C1876       C  0.36346213  0.46404701  0.04020244    -0.31900
C1877       C  0.37382778  0.56254022  0.98480105     0.02300
C1878       C  0.37446373  0.58045735  0.97975788    -0.33500
H1879       H  0.40340113  0.53495944  0.99002958     0.13400
H1880       H  0.39969708  0.49968628  0.00946683     0.13200
H1881       H  0.33582031  0.50806974  0.02023408     0.13100
H1882       H  0.33951787  0.54326903  0.00080400     0.12100
C1883       C  0.36304343  0.38798202  0.78342373     0.18400
C1884       C  0.34551167  0.38192058  0.80137284    -0.10700
C1885       C  0.34396144  0.38406094  0.83894798    -0.11500
C1886       C  0.35989110  0.39236490  0.85873172     0.20000
C1887       C  0.37744078  0.39842554  0.84080436    -0.13600
C1888       C  0.37899023  0.39628885  0.80319214    -0.11900
C1889       C  0.35861981  0.39355527  0.89757717     0.01000
C1890       C  0.35811889  0.39250098  0.93015757    -0.31900
C1891       C  0.36413118  0.38677902  0.74455989     0.02300
C1892       C  0.36374952  0.38755891  0.71194862    -0.33500
H1893       H  0.33301921  0.37564912  0.78631053     0.13400
H1894       H  0.33039819  0.37916703  0.85258388     0.13200
H1895       H  0.38992067  0.40470494  0.85588660     0.13100
H1896       H  0.39254163  0.40119176  0.78953113     0.12100
C1897       C  0.35549807  0.39035627  0.35889614     0.18400
C1898       C  0.37301633  0.38222454  0.34383297    -0.10700
C1899       C  0.37485637  0.38026017  0.30625043    -0.11500
C1900       C  0.35914906  0.38636875  0.28361931     0.20000
C1901       C  0.34168893  0.39461467  0.29868331    -0.13600
C1902       C  0.33984990  0.39657858  0.33625334    -0.11900
C1903       C  0.36101880  0.38484834  0.24489706     0.01000
C1904       C  0.36132632  0.38557429  0.21228406    -0.31900
C1905       C  0.35340371  0.39149932  0.39761320     0.02300
C1906       C  0.35286937  0.39060529  0.43019611    -0.33500
H1907       H  0.38518208  0.37729604  0.36115072     0.13400
H1908       H  0.38846859  0.37399787  0.29488275     0.13200
H1909       H  0.32950693  0.39951552  0.28137757     0.13100
H1910       H  0.32622424  0.40281288  0.34761887     0.12100
C1911       C  0.22918804  0.39717580  0.21103739     0.18400
C1912       C  0.22733735  0.39235718  0.17409534    -0.10700
C1913       C  0.24430321  0.39231004  0.15147274    -0.11500
C1914       C  0.26326888  0.39712165  0.16558681     0.20000
C1915       C  0.26507712  0.40194367  0.20247149    -0.13600
C1916       C  0.24815018  0.40198976  0.22504291    -0.11900
C1917       C  0.28101629  0.39711911  0.14281351     0.01000
C1918       C  0.29722534  0.39759885  0.12791002    -0.31900
C1919       C  0.21160892  0.39758599  0.23427259     0.02300
C1920       C  0.19606576  0.39839718  0.25132688    -0.33500
H1921       H  0.21277811  0.38868732  0.16276293     0.13400
H1922       H  0.24262439  0.38855247  0.12306986     0.13200
H1923       H  0.27961333  0.40569555  0.21381620     0.13100
H1924       H  0.24985351  0.40582959  0.25340220     0.12100
C1925       C  0.72687910  0.15289149  0.70586810     0.18400
C1926       C  0.73279290  0.15887816  0.67095278    -0.10700
C1927       C  0.75315571  0.15902729  0.66115882    -0.11500
C1928       C  0.76785077  0.15316674  0.68617960     0.20000
C1929       C  0.76194437  0.14724941  0.72115322    -0.13600
C1930       C  0.74157844  0.14708846  0.73094014    -0.11900
C1931       C  0.78893108  0.15275687  0.67617694     0.01000
C1932       C  0.80691367  0.15108262  0.67201708    -0.31900
C1933       C  0.70569708  0.15165474  0.71486566     0.02300
C1934       C  0.68767909  0.14948374  0.71757531    -0.33500
H1935       H  0.72162154  0.16320889  0.65111902     0.13400
H1936       H  0.75740520  0.16354315  0.63401687     0.13200
H1937       H  0.77308798  0.14258089  0.74078934     0.13100
H1938       H  0.73729877  0.14222525  0.75787519     0.12100
C1939       C  0.87335074  0.04247829  0.74660717     0.18400
C1940       C  0.88701490  0.03331816  0.77024188    -0.10700
C1941       C  0.88425305  0.01329568  0.78075965    -0.11500
C1942       C  0.86779500  0.00227984  0.76775754     0.20000
C1943       C  0.85425673  0.01136026  0.74375016    -0.13600
C1944       C  0.85702073  0.03139903  0.73322516    -0.11900
C1945       C  0.86467069  0.98183302  0.77963774     0.01000
C1946       C  0.86241819  0.96483658  0.79045927    -0.31900
C1947       C  0.87538478  0.06353136  0.73795745     0.02300
C1948       C  0.87605945  0.08145977  0.73303887    -0.33500
H1949       H  0.89961512  0.04174226  0.78098511     0.13400
H1950       H  0.89481597  0.00648052  0.79935904     0.13200
H1951       H  0.84145903  0.00303919  0.73352311     0.13100
H1952       H  0.84626584  0.03833696  0.71513697     0.12100
C1953       C  0.03784747  0.13041957  0.75365236     0.18400
C1954       C  0.03147366  0.14710188  0.73360370    -0.10700
C1955       C  0.01130121  0.14907412  0.72367451    -0.11500
C1956       C  0.99726221  0.13438125  0.73367624     0.20000
C1957       C  0.00359119  0.11766719  0.75383854    -0.13600
C1958       C  0.02383176  0.11568775  0.76379863    -0.11900
C1959       C  0.97650347  0.13647353  0.72275681     0.01000
C1960       C  0.95933365  0.13854659  0.71269638    -0.31900
C1961       C  0.05881595  0.12855391  0.76315545     0.02300
C1962       C  0.07667074  0.12832233  0.76908758    -0.33500
H1963       H  0.04213421  0.15857410  0.72551529     0.13400
H1964       H  0.00666527  0.16203759  0.70806326     0.13200
H1965       H  0.99292212  0.10616217  0.76172151     0.13100
H1966       H  0.02854221  0.10268702  0.77923788     0.12100
C1967       C  0.72669927  0.15837089  0.19956566     0.18400
C1968       C  0.73209590  0.15288772  0.16414574    -0.10700
C1969       C  0.75228406  0.15299265  0.15344631    -0.11500
C1970       C  0.76728925  0.15863334  0.17805193     0.20000
C1971       C  0.76186231  0.16458998  0.21322080    -0.13600
C1972       C  0.74165363  0.16446283  0.22394606    -0.11900
C1973       C  0.78827902  0.15665598  0.16852600     0.01000
C1974       C  0.80604588  0.15343077  0.16494508    -0.31900
C1975       C  0.70591849  0.15679065  0.21078884     0.02300
C1976       C  0.68816015  0.15380748  0.21536409    -0.33500
H1977       H  0.72071617  0.14809864  0.14500451     0.13400
H1978       H  0.75621704  0.14819770  0.12631165     0.13200
H1979       H  0.77330431  0.16883756  0.23264778     0.13100
H1980       H  0.73775696  0.16869623  0.25139695     0.12100
C1981       C  0.87202004  0.04313033  0.24744730     0.18400
C1982       C  0.85349675  0.03326516  0.24389689    -0.10700
C1983       C  0.85148743  0.01315075  0.25441597    -0.11500
C1984       C  0.86798963  0.00275556  0.26859452     0.20000
C1985       C  0.88650568  0.01262378  0.27220340    -0.13600
C1986       C  0.88851477  0.03274595  0.26168666    -0.11900
C1987       C  0.86588929  0.98208873  0.27986971     0.01000
C1988       C  0.86425174  0.96492308  0.29011163    -0.31900
C1989       C  0.87379894  0.06407855  0.23777760     0.02300
C1990       C  0.87410922  0.08189671  0.23154670    -0.33500
H1991       H  0.84058136  0.04116121  0.23322480     0.13400
H1992       H  0.83706679  0.00574508  0.25164204     0.13200
H1993       H  0.89935330  0.00479310  0.28328667     0.13100
H1994       H  0.90286856  0.04022712  0.26487300     0.12100
C1995       C  0.99420639  0.13646796  0.23990159     0.18400
C1996       C  0.00430741  0.15061634  0.26137527    -0.10700
C1997       C  0.02441340  0.14754533  0.27096209    -0.11500
C1998       C  0.03455123  0.13030445  0.25917210     0.20000
C1999       C  0.02446263  0.11618283  0.23763166    -0.13600
C2000       C  0.00435912  0.11925185  0.22804977    -0.11900
C2001       C  0.05551995  0.12764108  0.26777516     0.01000
C2002       C  0.07338828  0.12677946  0.27316187    -0.31900
C2003       C  0.97351603  0.13961055  0.22974357     0.02300
C2004       C  0.95630619  0.14178265  0.22017977    -0.33500
H2005       H  0.99667924  0.16403247  0.27057710     0.13400
H2006       H  0.03209404  0.15867732  0.28732567     0.13200
H2007       H  0.03216678  0.10289563  0.22803515     0.13100
H2008       H  0.99675754  0.10824603  0.21129528     0.12100
C2009       C  0.88897024  0.14712532  0.89864046     0.18400
C2010       C  0.90147888  0.13452977  0.91892359    -0.10700
C2011       C  0.89888329  0.13295718  0.95643039    -0.11500
C2012       C  0.88369569  0.14387346  0.97377841     0.20000
C2013       C  0.87131680  0.15662312  0.95354511    -0.13600
C2014       C  0.87391412  0.15819825  0.91604193    -0.11900
C2015       C  0.88137855  0.14250327  0.01247195     0.01000
C2016       C  0.88133051  0.14214572  0.04512724    -0.31900
C2017       C  0.89055432  0.14766630  0.85976967     0.02300
C2018       C  0.88949807  0.14714065  0.82718296    -0.33500
H2019       H  0.91305486  0.12577592  0.90572259     0.13400
H2020       H  0.90865818  0.12319060  0.97187755     0.13200
H2021       H  0.85964687  0.16526859  0.96671086     0.13100
H2022       H  0.86404641  0.16785748  0.90056416     0.12100
C2023       C  0.87625288  0.13999874  0.47448023     0.18400
C2024       C  0.88578175  0.12493973  0.45435790    -0.10700
C2025       C  0.88781158  0.12692258  0.41680969    -0.11500
C2026       C  0.88041510  0.14402086  0.39922305     0.20000
C2027       C  0.87077586  0.15903494  0.41930436    -0.13600
C2028       C  0.86874907  0.15705339  0.45687365    -0.11900
C2029       C  0.88188535  0.14566629  0.36042836     0.01000
C2030       C  0.88151029  0.14592372  0.32777598    -0.31900
C2031       C  0.87550695  0.13863393  0.51337619     0.02300
C2032       C  0.87703284  0.13862266  0.54592145    -0.33500
H2033       H  0.89181087  0.11178312  0.46772751     0.13400
H2034       H  0.89513864  0.11514475  0.40150837     0.13200
H2035       H  0.86484841  0.17224123  0.40594491     0.13100
H2036       H  0.86152677  0.16888224  0.47221032     0.12100
C2037       C  0.72733510  0.35426642  0.93167647     0.18400
C2038       C  0.73290990  0.36159871  0.96588248    -0.10700
C2039       C  0.75311493  0.36205855  0.97618033    -0.11500
C2040       C  0.76792202  0.35513905  0.95238159     0.20000
C2041       C  0.76236831  0.34767553  0.91822146    -0.13600
C2042       C  0.74211979  0.34721926  0.90789547    -0.11900
C2043       C  0.78886029  0.35695608  0.96187617     0.01000
C2044       C  0.80663384  0.35983012  0.96577241    -0.31900
C2045       C  0.70642485  0.35443689  0.92142069     0.02300
C2046       C  0.68845305  0.35618746  0.91853402    -0.33500
H2047       H  0.72162804  0.36715856  0.98448188     0.13400
H2048       H  0.75720427  0.36806537  0.00245511     0.13200
H2049       H  0.77370884  0.34248419  0.89939738     0.13100
H2050       H  0.73803559  0.34158196  0.88135835     0.12100
C2051       C  0.87329528  0.46725372  0.88242202     0.18400
C2052       C  0.85985925  0.47961807  0.90123864    -0.10700
C2053       C  0.85758740  0.49975105  0.89118430    -0.11500
C2054       C  0.86871885  0.50760952  0.86222600     0.20000
C2055       C  0.88229039  0.49529311  0.84362106    -0.13600
C2056       C  0.88456127  0.47516346  0.85367296    -0.11900
C2057       C  0.86599481  0.52817225  0.85115401     0.01000
C2058       C  0.86390721  0.54526442  0.84100445    -0.31900
C2059       C  0.87475320  0.44624823  0.89138101     0.02300
C2060       C  0.87490176  0.42841710  0.89717540    -0.33500
H2061       H  0.85097008  0.47363492  0.92335007     0.13400
H2062       H  0.84702893  0.50911800  0.90572670     0.13200
H2063       H  0.89095517  0.50119350  0.82114807     0.13100
H2064       H  0.89489421  0.46571888  0.83876563     0.12100
C2065       C  0.03549046  0.37955654  0.87497887     0.18400
C2066       C  0.02682093  0.36035069  0.87433497    -0.10700
C2067       C  0.00655459  0.35776659  0.88320196    -0.11500
C2068       C  0.99482919  0.37437764  0.89278799     0.20000
C2069       C  0.00345799  0.39360774  0.89323541    -0.13600
C2070       C  0.02374185  0.39619337  0.88437026    -0.11900
C2071       C  0.97413192  0.37163983  0.90312592     0.01000
C2072       C  0.95697526  0.36956647  0.91299268    -0.31900
C2073       C  0.05657645  0.38194924  0.86722448     0.02300
C2074       C  0.07447166  0.38260413  0.86217829    -0.33500
H2075       H  0.03577738  0.34735730  0.86731894     0.13400
H2076       H  0.00008723  0.34282003  0.88290335     0.13200
H2077       H  0.99456143  0.40655514  0.90075098     0.13100
H2078       H  0.03029103  0.41109702  0.88516831     0.12100
C2079       C  0.88727703  0.23948626  0.09151176     0.18400
C2080       C  0.88424019  0.23712852  0.05410222    -0.10700
C2081       C  0.88412182  0.25389974  0.03114203    -0.11500
C2082       C  0.88704583  0.27318791  0.04541303     0.20000
C2083       C  0.88993810  0.27555521  0.08286462    -0.13600
C2084       C  0.89006782  0.25878194  0.10582308    -0.11900
C2085       C  0.88745635  0.29061073  0.02196547     0.01000
C2086       C  0.88848986  0.30644666  0.00596264    -0.31900
C2087       C  0.88809580  0.22196166  0.11462885     0.02300
C2088       C  0.88919701  0.20595412  0.12999320    -0.33500
H2089       H  0.88213328  0.22229036  0.04263663     0.13400
H2090       H  0.88189965  0.25180835  0.00230788     0.13200
H2091       H  0.89224487  0.29037327  0.09428721     0.13100
H2092       H  0.89250104  0.26084931  0.13460884     0.12100
C2093       C  0.72631770  0.35457699  0.43387652     0.18400
C2094       C  0.73237367  0.35934345  0.46927788    -0.10700
C2095       C  0.75271644  0.35890861  0.47877361    -0.11500
C2096       C  0.76718045  0.35364728  0.45295155     0.20000
C2097       C  0.76110899  0.34855159  0.41768338    -0.13600
C2098       C  0.74074183  0.34900454  0.40816566    -0.11900
C2099       C  0.78829928  0.35497917  0.46155070     0.01000
C2100       C  0.80619025  0.35762644  0.46429764    -0.31900
C2101       C  0.70536056  0.35613211  0.42421501     0.02300
C2102       C  0.68749555  0.35876710  0.42114750    -0.33500
H2103       H  0.72138027  0.36373320  0.48940095     0.13400
H2104       H  0.75718485  0.36306242  0.50599263     0.13200
H2105       H  0.77215958  0.34463565  0.39734638     0.13100
H2106       H  0.73630018  0.34534096  0.38070698     0.12100
C2107       C  0.86848062  0.50782031  0.36632840     0.18400
C2108       C  0.88580900  0.49720692  0.35657199    -0.10700
C2109       C  0.88798413  0.47705173  0.36659111    -0.11500
C2110       C  0.87285185  0.46739350  0.38646780     0.20000
C2111       C  0.85563619  0.47808106  0.39662586    -0.13600
C2112       C  0.85345931  0.49823833  0.38660027    -0.11900
C2113       C  0.87444391  0.44628018  0.39468539     0.01000
C2114       C  0.87476708  0.42835401  0.39958397    -0.31900
C2115       C  0.86589360  0.52831361  0.35459838     0.02300
C2116       C  0.86386362  0.54527624  0.34364857    -0.33500
H2117       H  0.89750267  0.50442947  0.34081989     0.13400
H2118       H  0.90130021  0.46892680  0.35837077     0.13200
H2119       H  0.84377217  0.47074980  0.41179039     0.13100
H2120       H  0.83997124  0.50625705  0.39422638     0.12100
C2121       C  0.03602781  0.37632071  0.37704206     0.18400
C2122       C  0.03003966  0.36155197  0.40191673    -0.10700
C2123       C  0.00972780  0.35918348  0.41069687    -0.11500
C2124       C  0.99524687  0.37155360  0.39463985     0.20000
C2125       C  0.00118455  0.38612048  0.36934532    -0.13600
C2126       C  0.02151741  0.38849217  0.36055721    -0.11900
C2127       C  0.97445375  0.36977391  0.40516588     0.01000
C2128       C  0.95726167  0.36859475  0.41537163    -0.31900
C2129       C  0.05707680  0.37910472  0.36908653     0.02300
C2130       C  0.07494946  0.38049659  0.36400547    -0.33500
H2131       H  0.04109317  0.35201881  0.41481641     0.13400
H2132       H  0.00534783  0.34788860  0.43032270     0.13200
H2133       H  0.99014001  0.39579542  0.35677838     0.13100
H2134       H  0.02593352  0.39993539  0.34125012     0.12100
C2135       C  0.88277419  0.36626798  0.73287934     0.18400
C2136       C  0.87891614  0.34940508  0.71127401    -0.10700
C2137       C  0.87674422  0.35152743  0.67377681    -0.11500
C2138       C  0.87832066  0.37053487  0.65768201     0.20000
C2139       C  0.88213743  0.38742507  0.67927900    -0.13600
C2140       C  0.88430386  0.38530152  0.71681415    -0.11900
C2141       C  0.87722346  0.37237976  0.61885413     0.01000
C2142       C  0.87824113  0.37238779  0.58623012    -0.31900
C2143       C  0.88414618  0.36421406  0.77165299     0.02300
C2144       C  0.88347132  0.36349790  0.80428680    -0.33500
H2145       H  0.87753984  0.33464905  0.72340948     0.13400
H2146       H  0.87396981  0.33833758  0.65730713     0.13200
H2147       H  0.88355860  0.40216893  0.66710968     0.13100
H2148       H  0.88711908  0.39847815  0.73329480     0.12100
C2149       C  0.88683463  0.36610653  0.23305417     0.18400
C2150       C  0.89791077  0.38094398  0.21491217    -0.10700
C2151       C  0.89570943  0.38344728  0.17745880    -0.11500
C2152       C  0.88234123  0.37119447  0.15808160     0.20000
C2153       C  0.87136956  0.35631090  0.17622761    -0.13600
C2154       C  0.87357824  0.35380175  0.21361262    -0.11900
C2155       C  0.88077734  0.37296796  0.11932219     0.01000
C2156       C  0.88108630  0.37272232  0.08666921    -0.31900
C2157       C  0.88787705  0.36439911  0.27187551     0.02300
C2158       C  0.88651669  0.36399057  0.30443423    -0.33500
H2159       H  0.90808098  0.39065685  0.22972895     0.13400
H2160       H  0.90443868  0.39486391  0.16363249     0.13200
H2161       H  0.86116198  0.34661439  0.16146054     0.13100
H2162       H  0.86481673  0.34239822  0.22740793     0.12100
C2163       C  0.88942219  0.23729803  0.58676228     0.18400
C2164       C  0.90650311  0.24291708  0.56689514    -0.10700
C2165       C  0.90614225  0.25998872  0.54464282    -0.11500
C2166       C  0.88866322  0.27158801  0.54184935     0.20000
C2167       C  0.87150662  0.26586727  0.56142802    -0.13600
C2168       C  0.87186628  0.24877590  0.58369347    -0.11900
C2169       C  0.88873287  0.28994251  0.52069468     0.01000
C2170       C  0.88940540  0.30623893  0.50610990    -0.31900
C2171       C  0.88982927  0.21943362  0.60925519     0.02300
C2172       C  0.89065029  0.20350073  0.62508026    -0.33500
H2173       H  0.92013626  0.23413397  0.56869684     0.13400
H2174       H  0.91955973  0.26425188  0.52990454     0.13200
H2175       H  0.85791675  0.27472417  0.55976646     0.13100
H2176       H  0.85848945  0.24456306  0.59859160     0.12100
loop_ 
_geom_bond_atom_site_label_1 
_geom_bond_atom_site_label_2 
_geom_bond_distance 
_geom_bond_site_symmetry_2 
_ccdc_geom_bond_type 
O1           Ni7   1.919       .  S
O1           C22   1.266       .  A
O2          Ni25   1.905       .  S
O2           C11   1.266       .  A
O3           Ni7   1.914       .  S
O3          Ni25   1.908       .  S
O3          Ni19   1.919       .  S
O3           H26   0.966       .  S
C4           O21   1.278       .  A
C4           O13   1.275       .  A
C4         C2142   1.434       .  S
O5          Ni24   1.937       .  S
O5           C11   1.272       .  A
O6          Ni24   1.911       .  S
O6            C8   1.269       .  A
Ni7          O10   1.921       .  S
Ni7          O12   1.904       .  S
C8           O18   1.273       .  A
C8         C2170   1.444       .  S
O9          Ni25   1.918       .  S
O9           C15   1.274       .  A
O10          C15   1.274       .  A
C11        C2128   1.438       .  S
O12          C14   1.265       .  A
O13         Ni24   1.920       .  S
C14          O20   1.271       .  A
C14        C2114   1.437       .  S
C15        C2158   1.433       .  S
H16          O17   0.966       .  S
O17         Ni25   1.911       .  S
O17         Ni19   1.909       .  S
O17         Ni24   1.906       .  S
O18         Ni19   1.935       .  S
Ni19         O23   1.923       .  S
Ni19         O21   1.926       .  S
O20         Ni25   1.933       .  S
C22          O23   1.270       .  A
C22        C2100   1.438       .  S
O27         Ni33   1.912       .  S
O27          C48   1.263       .  A
O28         Ni51   1.905       .  S
O28          C37   1.266       .  A
O29         Ni33   1.913       .  S
O29         Ni51   1.905       .  S
O29         Ni45   1.922       .  S
O29          H52   0.966       .  S
C30          O47   1.278       .  A
C30          O39   1.275       .  A
C30        C2156   1.433       .  S
O31         Ni50   1.935       .  S
O31          C37   1.272       .  A
O32         Ni50   1.910       .  S
O32          C34   1.268       .  A
Ni33         O36   1.917       .  S
Ni33         O38   1.904       .  S
C34          O44   1.273       .  A
C34        C2086   1.441   1_556  S
O35         Ni51   1.925       .  S
O35          C41   1.276       .  A
O36          C41   1.274       .  A
C37        C2072   1.437       .  S
O38          C40   1.265       .  A
O39         Ni50   1.921   1_554  S
C40          O46   1.269       .  A
C40        C2060   1.436       .  S
C41        C2144   1.434       .  S
H42          O43   0.966       .  S
O43         Ni51   1.913       .  S
O43         Ni45   1.909       .  S
O43         Ni50   1.905       .  S
O44         Ni45   1.933       .  S
Ni45         O49   1.924       .  S
Ni45         O47   1.924   1_556  S
O46         Ni51   1.928       .  S
C48          O49   1.268       .  A
C48        C2044   1.436       .  S
O53         Ni59   1.917       .  S
O53          C74   1.265       .  A
O54         Ni77   1.910       .  S
O54          C63   1.267       .  A
O55         Ni59   1.911       .  S
O55         Ni77   1.906       .  S
O55         Ni71   1.918       .  S
O55          H78   0.965       .  S
C56          O73   1.278       .  A
C56          O65   1.275       .  A
C56        C2016   1.433       .  S
O57         Ni76   1.933       .  S
O57          C63   1.271       .  A
O58         Ni76   1.910       .  S
O58          C60   1.268       .  A
Ni59         O62   1.919       .  S
Ni59         O64   1.905       .  S
C60          O70   1.272       .  A
C60        C2088   1.440       .  S
O61         Ni77   1.922       .  S
O61          C67   1.276       .  A
O62          C67   1.274       .  A
C63        C2004   1.439       .  S
O64          C66   1.266       .  A
O65         Ni76   1.918       .  S
C66          O72   1.271       .  A
C66        C1990   1.439       .  S
C67        C2030   1.433       .  S
H68          O69   0.966       .  S
O69         Ni77   1.915       .  S
O69         Ni71   1.913       .  S
O69         Ni76   1.908       .  S
O70         Ni71   1.931       .  S
Ni71         O75   1.927       .  S
Ni71         O73   1.926       .  S
O72         Ni77   1.934       .  S
C74          O75   1.270       .  A
C74        C1974   1.442       .  S
O79         Ni85   1.916       .  S
O79         C100   1.264       .  A
O80        Ni103   1.907       .  S
O80          C89   1.266       .  A
O81         Ni85   1.914       .  S
O81        Ni103   1.909       .  S
O81         Ni97   1.916       .  S
O81         H104   0.966       .  S
C82          O99   1.277       .  A
C82          O91   1.275       .  A
C82        C2032   1.433       .  S
O83        Ni102   1.942       .  S
O83          C89   1.273       .  A
O84        Ni102   1.912       .  S
O84          C86   1.270       .  A
Ni85         O88   1.917       .  S
Ni85         O90   1.905       .  S
C86          O96   1.275       .  A
C86        C2172   1.444       .  S
O87        Ni103   1.922       .  S
O87          C93   1.275       .  A
O88          C93   1.273       .  A
C89        C1960   1.443       .  S
O90          C92   1.265       .  A
O91        Ni102   1.922       .  S
C92          O98   1.270       .  A
C92        C1948   1.438       .  S
C93        C2018   1.433       .  S
H94          O95   0.966       .  S
O95        Ni103   1.913       .  S
O95         Ni97   1.916       .  S
O95        Ni102   1.907       .  S
O96         Ni97   1.938       .  S
Ni97        O101   1.935       .  S
Ni97         O99   1.921       .  S
O98        Ni103   1.931       .  S
C100        O101   1.272       .  A
C100       C1932   1.445       .  S
O105       Ni111   1.938       .  S
O105        C126   1.272       .  A
O106       Ni129   1.929       .  S
O106        C115   1.271       .  A
O107       Ni111   1.907       .  S
O107       Ni129   1.912       .  S
O107       Ni123   1.911       .  S
O107        H130   0.966       .  S
C108        O125   1.275       .  A
C108        O117   1.274       .  A
C108       C1890   1.433       .  S
O109       Ni128   1.916       .  S
O109        C115   1.265       .  A
O110       Ni128   1.903       .  S
O110        C112   1.265       .  A
Ni111       O114   1.920       .  S
Ni111       O116   1.912       .  S
C112        O122   1.270       .  A
C112       C1862   1.437       .  S
O113       Ni129   1.923       .  S
O113        C119   1.277       .  A
O114        C119   1.275       .  A
C115       C1850   1.441       .  S
O116        C118   1.269       .  A
O117       Ni128   1.918   1_556  S
C118        O124   1.274       .  A
C118       C1918   1.444       .  S
C119       C1904   1.432       .  S
H120        O121   0.966       .  S
O121       Ni129   1.918       .  S
O121       Ni123   1.907       .  S
O121       Ni128   1.912       .  S
O122       Ni123   1.932       .  S
Ni123       O127   1.906       .  S
Ni123       O125   1.920   1_554  S
O124       Ni129   1.936       .  S
C126        O127   1.266       .  A
C126       C1876   1.440       .  S
O131       Ni137   1.936       .  S
O131        C152   1.272       .  A
O132       Ni155   1.923       .  S
O132        C141   1.269       .  A
O133       Ni137   1.907       .  S
O133       Ni155   1.910       .  S
O133       Ni149   1.913       .  S
O133        H156   0.966       .  S
C134        O151   1.275       .  A
C134        O143   1.274       .  A
C134       C1906   1.432       .  S
O135       Ni154   1.917       .  S
O135        C141   1.265       .  A
O136       Ni154   1.905       .  S
O136        C138   1.265       .  A
Ni137       O140   1.921       .  S
Ni137       O142   1.909       .  S
C138        O148   1.270       .  A
C138       C1806   1.439       .  S
O139       Ni155   1.921       .  S
O139        C145   1.276       .  A
O140        C145   1.275       .  A
C141       C1792   1.437       .  S
O142        C144   1.268       .  A
O143       Ni154   1.918       .  S
C144        O150   1.274       .  A
C144       C1834   1.441       .  S
C145       C1892   1.433       .  S
H146        O147   0.966       .  S
O147       Ni155   1.917       .  S
O147       Ni149   1.904       .  S
O147       Ni154   1.912       .  S
O148       Ni149   1.932       .  S
Ni149       O153   1.904       .  S
Ni149       O151   1.920       .  S
O150       Ni155   1.935       .  S
C152        O153   1.265       .  A
C152       C1820   1.437       .  S
O157       Ni163   1.937       .  S
O157        C178   1.273       .  A
O158       Ni181   1.927       .  S
O158        C167   1.270       .  A
O159       Ni163   1.903       .  S
O159       Ni181   1.908       .  S
O159       Ni175   1.914       .  S
O159        H182   0.966       .  S
C160        O177   1.278       .  A
C160        O169   1.274       .  A
C160       C1764   1.434       .  S
O161       Ni180   1.911       .  S
O161        C167   1.263       .  A
O162       Ni180   1.906       .  S
O162        C164   1.265       .  A
Ni163       O166   1.922       .  S
Ni163       O168   1.911       .  S
C164        O174   1.270       .  A
C164       C2130   1.439       .  S
O165       Ni181   1.921       .  S
O165        C171   1.278       .  A
O166        C171   1.276       .  A
C167       C1736   1.436       .  S
O168        C170   1.269       .  A
O169       Ni180   1.914       .  S
C170        O176   1.275       .  A
C170       C1920   1.445       .  S
C171       C1780   1.432       .  S
H172        O173   0.966       .  S
O173       Ni181   1.921       .  S
O173       Ni175   1.902       .  S
O173       Ni180   1.910       .  S
O174       Ni175   1.933       .  S
Ni175       O179   1.906       .  S
Ni175       O177   1.929       .  S
O176       Ni181   1.938       .  S
C178        O179   1.267       .  A
C178       C1752   1.438       .  S
O183       Ni189   1.939       .  S
O183        C204   1.272       .  A
O184       Ni207   1.925       .  S
O184        C193   1.269       .  A
O185       Ni189   1.910       .  S
O185       Ni207   1.915       .  S
O185       Ni201   1.914       .  S
O185        H208   0.966       .  S
C186        O203   1.275       .  A
C186        O195   1.273       .  A
C186       C1778   1.432       .  S
O187       Ni206   1.916       .  S
O187        C193   1.264       .  A
O188       Ni206   1.904       .  S
O188        C190   1.265       .  A
Ni189       O192   1.923       .  S
Ni189       O194   1.908       .  S
C190        O200   1.270       .  A
C190       C2074   1.437       .  S
O191       Ni207   1.920       .  S
O191        C197   1.276       .  A
O192        C197   1.275       .  A
C193       C1708   1.439       .  S
O194        C196   1.268       .  A
O195       Ni206   1.917       .  S
C196        O202   1.273       .  A
C196       C1836   1.441       .  S
C197       C1766   1.434       .  S
H198        O199   0.966       .  S
O199       Ni207   1.917       .  S
O199       Ni201   1.906       .  S
O199       Ni206   1.914       .  S
O200       Ni201   1.931       .  S
Ni201       O205   1.907       .  S
Ni201       O203   1.921       .  S
O202       Ni207   1.934       .  S
C204        O205   1.266       .  A
C204       C1724   1.442       .  S
O209       Ni215   1.914       .  S
O209        C230   1.264       .  A
O210       Ni233   1.910       .  S
O210        C219   1.267       .  A
O211       Ni215   1.912       .  S
O211       Ni233   1.906       .  S
O211       Ni227   1.918       .  S
O211        H234   0.966       .  S
C212        O229   1.277       .  A
C212        O221   1.275       .  A
C212       C1666   1.431       .  S
O213       Ni232   1.935       .  S
O213        C219   1.272       .  A
O214       Ni232   1.910       .  S
O214        C216   1.269       .  A
Ni215       O218   1.917       .  S
Ni215       O220   1.905       .  S
C216        O226   1.273       .  A
C216       C1694   1.441       .  S
O217       Ni233   1.923       .  S
O217        C223   1.276       .  A
O218        C223   1.274       .  A
C219       C1652   1.441       .  S
O220        C222   1.265       .  A
O221       Ni232   1.919       .  S
C222        O228   1.269       .  A
C222       C1750   1.437       .  S
C223       C1682   1.432       .  S
H224        O225   0.966       .  S
O225       Ni233   1.913       .  S
O225       Ni227   1.912       .  S
O225       Ni232   1.906       .  S
O226       Ni227   1.934       .  S
Ni227       O231   1.927       .  S
Ni227       O229   1.921       .  S
O228       Ni233   1.930       .  S
C230        O231   1.270       .  A
C230       C1640   1.438       .  S
O235       Ni241   1.913       .  S
O235        C256   1.264       .  A
O236       Ni259   1.907       .  S
O236        C245   1.267       .  A
O237       Ni241   1.910       .  S
O237       Ni259   1.903       .  S
O237       Ni253   1.918       .  S
O237        H260   0.966       .  S
C238        O255   1.277       .  A
C238        O247   1.276       .  A
C238       C1680   1.432       .  S
O239       Ni258   1.938       .  S
O239        C245   1.273       .  A
O240       Ni258   1.913       .  S
O240        C242   1.269       .  A
Ni241       O244   1.917       .  S
Ni241       O246   1.907       .  S
C242        O252   1.273       .  A
C242       C1624   1.444   1_556  S
O243       Ni259   1.922       .  S
O243        C249   1.276       .  A
O244        C249   1.274       .  A
C245       C1612   1.440       .  S
O246        C248   1.265       .  A
O247       Ni258   1.922   1_554  S
C248        O254   1.271       .  A
C248       C1722   1.441       .  S
C249       C1668   1.432       .  S
H250        O251   0.966       .  S
O251       Ni259   1.911       .  S
O251       Ni253   1.908       .  S
O251       Ni258   1.903       .  S
O252       Ni253   1.935       .  S
Ni253       O257   1.924       .  S
Ni253       O255   1.921   1_556  S
O254       Ni259   1.935       .  S
C256        O257   1.269       .  A
C256       C1596   1.436       .  S
O261       Ni267   1.919       .  S
O261        C282   1.266       .  A
O262       Ni285   1.905       .  S
O262        C271   1.265       .  A
O263       Ni267   1.917       .  S
O263       Ni285   1.909       .  S
O263       Ni279   1.918       .  S
O263        H286   0.966       .  S
C264        O281   1.277       .  A
C264        O273   1.275       .  A
C264       C1568   1.434       .  S
O265       Ni284   1.938       .  S
O265        C271   1.272       .  A
O266       Ni284   1.912       .  S
O266        C268   1.269       .  A
Ni267       O270   1.922       .  S
Ni267       O272   1.905       .  S
C268        O278   1.273       .  A
C268       C1626   1.444       .  S
O269       Ni285   1.919       .  S
O269        C275   1.274       .  A
O270        C275   1.273       .  A
C271       C1542   1.439       .  S
O272        C274   1.266       .  A
O273       Ni284   1.922       .  S
C274        O280   1.270       .  A
C274       C1554   1.437       .  S
C275       C1582   1.435       .  S
H276        O277   0.966       .  S
O277       Ni285   1.912       .  S
O277       Ni279   1.909       .  S
O277       Ni284   1.907       .  S
O278       Ni279   1.934       .  S
Ni279       O283   1.919       .  S
Ni279       O281   1.923       .  S
O280       Ni285   1.932       .  S
C282        O283   1.268       .  A
C282       C1526   1.436       .  S
O287       Ni293   1.916       .  S
O287        C308   1.265       .  A
O288       Ni311   1.903       .  S
O288        C297   1.266       .  A
O289       Ni293   1.913       .  S
O289       Ni311   1.907       .  S
O289       Ni305   1.919       .  S
O289        H312   0.966       .  S
C290        O307   1.277       .  A
C290        O299   1.276       .  A
C290       C1584   1.434       .  S
O291       Ni310   1.935       .  S
O291        C297   1.272       .  A
O292       Ni310   1.910       .  S
O292        C294   1.268       .  A
Ni293       O296   1.917       .  S
Ni293       O298   1.903       .  S
C294        O304   1.273       .  A
C294       C1696   1.441       .  S
O295       Ni311   1.923       .  S
O295        C301   1.275       .  A
O296        C301   1.273       .  A
C297       C1498   1.435       .  S
O298        C300   1.265       .  A
O299       Ni310   1.921       .  S
C300        O306   1.270       .  A
C300       C1512   1.436       .  S
C301       C1570   1.434       .  S
H302        O303   0.966       .  S
O303       Ni311   1.913       .  S
O303       Ni305   1.907       .  S
O303       Ni310   1.905       .  S
O304       Ni305   1.933       .  S
Ni305       O309   1.922       .  S
Ni305       O307   1.924       .  S
O306       Ni311   1.931       .  S
C308        O309   1.269       .  A
C308       C1484   1.435       .  S
O313       Ni319   1.939       .  S
O313        C334   1.272       .  A
O314       Ni337   1.934       .  S
O314        C323   1.272       .  A
O315       Ni319   1.904       .  S
O315       Ni337   1.913       .  S
O315       Ni331   1.915       .  S
O315        H338   0.966       .  S
C316        O333   1.277       .  A
C316        O325   1.273       .  A
C316       C1444   1.433       .  S
O317       Ni336   1.911       .  S
O317        C323   1.263       .  A
O318       Ni336   1.906       .  S
O318        C320   1.265       .  A
Ni319       O322   1.921       .  S
Ni319       O324   1.908       .  S
C320        O330   1.270       .  A
C320       C1430   1.441       .  S
O321       Ni337   1.925       .  S
O321        C327   1.278       .  A
O322        C327   1.276       .  A
C323       C1400   1.442       .  S
O324        C326   1.268       .  A
O325       Ni336   1.914   1_556  S
C326        O332   1.275       .  A
C326       C1470   1.443       .  S
C327       C1456   1.435       .  S
H328        O329   0.966       .  S
O329       Ni337   1.921       .  S
O329       Ni331   1.905       .  S
O329       Ni336   1.912       .  S
O330       Ni331   1.934       .  S
Ni331       O335   1.908       .  S
Ni331       O333   1.926   1_554  S
O332       Ni337   1.938       .  S
C334        O335   1.267       .  A
C334       C1414   1.441       .  S
O339       Ni345   1.932       .  S
O339        C360   1.271       .  A
O340       Ni363   1.925       .  S
O340        C349   1.270       .  A
O341       Ni345   1.903       .  S
O341       Ni363   1.906       .  S
O341       Ni357   1.913       .  S
O341        H364   0.966       .  S
C342        O359   1.276       .  A
C342        O351   1.275       .  A
C342       C1458   1.435       .  S
O343       Ni362   1.919       .  S
O343        C349   1.266       .  A
O344       Ni362   1.907       .  S
O344        C346   1.266       .  A
Ni345       O348   1.917       .  S
Ni345       O350   1.911       .  S
C346        O356   1.270       .  A
C346       C1372   1.440       .  S
O347       Ni363   1.929       .  S
O347        C353   1.279       .  A
O348        C353   1.275       .  A
C349       C1344   1.440       .  S
O350        C352   1.268       .  A
O351       Ni362   1.923       .  S
C352        O358   1.273       .  A
C352       C1388   1.441       .  S
C353       C1442   1.433       .  S
H354        O355   0.966       .  S
O355       Ni363   1.919       .  S
O355       Ni357   1.904       .  S
O355       Ni362   1.910       .  S
O356       Ni357   1.933       .  S
Ni357       O361   1.905       .  S
Ni357       O359   1.920       .  S
O358       Ni363   1.933       .  S
C360        O361   1.266       .  A
C360       C1360   1.434       .  S
O365       Ni371   1.937       .  S
O365        C386   1.272       .  A
O366       Ni389   1.927       .  S
O366        C375   1.270       .  A
O367       Ni371   1.910       .  S
O367       Ni389   1.916       .  S
O367       Ni383   1.917       .  S
O367        H390   0.966       .  S
C368        O385   1.277       .  A
C368        O377   1.274       .  A
C368       C1316   1.433       .  S
O369       Ni388   1.914       .  S
O369        C375   1.265       .  A
O370       Ni388   1.908       .  S
O370        C372   1.266       .  A
Ni371       O374   1.921       .  S
Ni371       O376   1.909       .  S
C372        O382   1.270       .  A
C372       C1654   1.441       .  S
O373       Ni389   1.921       .  S
O373        C379   1.276       .  A
O374        C379   1.274       .  A
C375       C1302   1.439       .  S
O376        C378   1.269       .  A
O377       Ni388   1.917       .  S
C378        O384   1.274       .  A
C378       C1472   1.443       .  S
C379       C1330   1.434       .  S
H380        O381   0.966       .  S
O381       Ni389   1.917       .  S
O381       Ni383   1.902       .  S
O381       Ni388   1.911       .  S
O382       Ni383   1.932       .  S
Ni383       O387   1.904       .  S
Ni383       O385   1.924       .  S
O384       Ni389   1.937       .  S
C386        O387   1.265       .  A
C386       C2116   1.438       .  S
O391       Ni397   1.934       .  S
O391        C412   1.271       .  A
O392       Ni415   1.923       .  S
O392        C401   1.269       .  A
O393       Ni397   1.907       .  S
O393       Ni415   1.910       .  S
O393       Ni409   1.915       .  S
O393        H416   0.966       .  S
C394        O411   1.276       .  A
C394        O403   1.275       .  A
C394       C1332   1.433       .  S
O395       Ni414   1.916       .  S
O395        C401   1.265       .  A
O396       Ni414   1.906       .  S
O396        C398   1.265       .  A
Ni397       O400   1.919       .  S
Ni397       O402   1.909       .  S
C398        O408   1.270       .  A
C398       C1610   1.439       .  S
O399       Ni415   1.922       .  S
O399        C405   1.277       .  A
O400        C405   1.275       .  A
C401       C1288   1.437       .  S
O402        C404   1.268       .  A
O403       Ni414   1.920       .  S
C404        O410   1.273       .  A
C404       C1386   1.440       .  S
C405       C1318   1.432       .  S
H406        O407   0.966       .  S
O407       Ni415   1.916       .  S
O407       Ni409   1.903       .  S
O407       Ni414   1.911       .  S
O408       Ni409   1.932       .  S
Ni409       O413   1.904       .  S
Ni409       O411   1.920       .  S
O410       Ni415   1.933       .  S
C412        O413   1.265       .  A
C412       C2058   1.436       .  S
O417       Ni423   1.940       .  S
O417        C438   1.272       .  A
O418       Ni441   1.924       .  S
O418        C427   1.270       .  A
O419       Ni423   1.912       .  S
O419       Ni441   1.915       .  S
O419       Ni435   1.912       .  S
O419        H442   0.966       .  S
C420        O437   1.273       .  A
C420        O429   1.272       .  A
C420       C1260   1.433       .  S
O421       Ni440   1.922       .  S
O421        C427   1.266       .  A
O422       Ni440   1.905       .  S
O422        C424   1.266       .  A
Ni423       O426   1.922   1_554  S
Ni423       O428   1.911       .  S
C424        O434   1.270       .  A
C424       C1234   1.437       .  S
O425       Ni441   1.918   1_556  S
O425        C431   1.275       .  A
O426        C431   1.275       .  A
C427       C1402   1.441       .  S
O428        C430   1.269       .  A
O429       Ni440   1.919       .  S
C430        O436   1.273       .  A
C430       C1276   1.441   1_554  S
C431       C1246   1.433       .  S
H432        O433   0.966       .  S
O433       Ni441   1.914       .  S
O433       Ni435   1.913       .  S
O433       Ni440   1.918       .  S
O434       Ni435   1.931       .  S
Ni435       O439   1.907       .  S
Ni435       O437   1.917       .  S
O436       Ni441   1.934       .  S
C438        O439   1.265       .  A
C438       C1220   1.442       .  S
O443       Ni449   1.939       .  S
O443        C464   1.273       .  A
O444       Ni467   1.931       .  S
O444        C453   1.270       .  A
O445       Ni449   1.905       .  S
O445       Ni467   1.912       .  S
O445       Ni461   1.914       .  S
O445        H468   0.966       .  S
C446        O463   1.277       .  A
C446        O455   1.274       .  A
C446       C1248   1.433       .  S
O447       Ni466   1.913       .  S
O447        C453   1.264       .  A
O448       Ni466   1.905       .  S
O448        C450   1.265       .  A
Ni449       O452   1.922       .  S
Ni449       O454   1.911       .  S
C450        O460   1.271       .  A
C450       C1190   1.440       .  S
O451       Ni467   1.922       .  S
O451        C457   1.278       .  A
O452        C457   1.276       .  A
C453       C1346   1.442       .  S
O454        C456   1.269       .  A
O455       Ni466   1.917       .  S
C456        O462   1.274       .  A
C456       C1204   1.444       .  S
C457       C1262   1.432       .  S
H458        O459   0.966       .  S
O459       Ni467   1.920       .  S
O459       Ni461   1.906       .  S
O459       Ni466   1.913       .  S
O460       Ni461   1.934       .  S
Ni461       O465   1.910       .  S
Ni461       O463   1.922       .  S
O462       Ni467   1.937       .  S
C464        O465   1.267       .  A
C464       C1176   1.443       .  S
O469       Ni475   1.936       .  S
O469        C490   1.272       .  A
O470       Ni493   1.925       .  S
O470        C479   1.269       .  A
O471       Ni475   1.905       .  S
O471       Ni493   1.910       .  S
O471       Ni487   1.911       .  S
O471        H494   0.966       .  S
C472        O489   1.275       .  A
C472        O481   1.273       .  A
C472       C1162   1.434       .  S
O473       Ni492   1.917       .  S
O473        C479   1.265       .  A
O474       Ni492   1.905       .  S
O474        C476   1.265       .  A
Ni475       O478   1.920       .  S
Ni475       O480   1.909       .  S
C476        O486   1.271       .  A
C476       C1540   1.438       .  S
O477       Ni493   1.922       .  S
O477        C483   1.277       .  A
O478        C483   1.275       .  A
C479       C1304   1.439       .  S
O480        C482   1.268       .  A
O481       Ni492   1.918       .  S
C482        O488   1.273       .  A
C482       C1206   1.443       .  S
C483       C1150   1.432       .  S
H484        O485   0.966       .  S
O485       Ni493   1.920       .  S
O485       Ni487   1.909       .  S
O485       Ni492   1.914       .  S
O486       Ni487   1.933       .  S
Ni487       O491   1.908       .  S
Ni487       O489   1.923       .  S
O488       Ni493   1.935       .  S
C490        O491   1.267       .  A
C490       C1988   1.439       .  S
O495       Ni501   1.940       .  S
O495        C516   1.273       .  A
O496       Ni519   1.923       .  S
O496        C505   1.269       .  A
O497       Ni501   1.908       .  S
O497       Ni519   1.913       .  S
O497       Ni513   1.914       .  S
O497        H520   0.966       .  S
C498        O515   1.276       .  A
C498        O507   1.273       .  A
C498       C1148   1.432       .  S
O499       Ni518   1.916       .  S
O499        C505   1.264       .  A
O500       Ni518   1.903       .  S
O500        C502   1.265       .  A
Ni501       O504   1.923       .  S
Ni501       O506   1.910       .  S
C502        O512   1.269       .  A
C502       C1500   1.435       .  S
O503       Ni519   1.920       .  S
O503        C509   1.276       .  A
O504        C509   1.275       .  A
C505       C1290   1.437       .  S
O506        C508   1.269       .  A
O507       Ni518   1.916       .  S
C508        O514   1.273       .  A
C508       C1274   1.441       .  S
C509       C1164   1.434       .  S
H510        O511   0.966       .  S
O511       Ni519   1.917       .  S
O511       Ni513   1.906       .  S
O511       Ni518   1.913       .  S
O512       Ni513   1.929       .  S
Ni513       O517   1.906       .  S
Ni513       O515   1.922       .  S
O514       Ni519   1.933       .  S
C516        O517   1.266       .  A
C516       C1946   1.440       .  S
O521       Ni527   1.915       .  S
O521        C542   1.265       .  A
O522       Ni545   1.908       .  S
O522        C531   1.267       .  A
O523       Ni527   1.913       .  S
O523       Ni545   1.906       .  S
O523       Ni539   1.923       .  S
O523        H546   0.966       .  S
C524        O541   1.279       .  A
C524        O533   1.276       .  A
C524       C1120   1.435       .  S
O525       Ni544   1.936       .  S
O525        C531   1.272       .  A
O526       Ni544   1.914       .  S
O526        C528   1.269       .  A
Ni527       O530   1.918       .  S
Ni527       O532   1.907       .  S
C528        O538   1.274       .  A
C528       C1136   1.446       .  S
O529       Ni545   1.923       .  S
O529        C535   1.276       .  A
O530        C535   1.274       .  A
C531       C1094   1.440       .  S
O532        C534   1.266       .  A
O533       Ni544   1.919       .  S
C534        O540   1.270       .  A
C534       C1218   1.440       .  S
C535       C1108   1.433       .  S
H536        O537   0.966       .  S
O537       Ni545   1.914       .  S
O537       Ni539   1.909       .  S
O537       Ni544   1.904       .  S
O538       Ni539   1.938       .  S
Ni539       O543   1.930       .  S
Ni539       O541   1.929       .  S
O540       Ni545   1.932       .  S
C542        O543   1.271       .  A
C542       C1976   1.442       .  S
O547       Ni553   1.919       .  S
O547        C568   1.265       .  A
O548       Ni571   1.904       .  S
O548        C557   1.265       .  A
O549       Ni553   1.916       .  S
O549       Ni571   1.909       .  S
O549       Ni565   1.918       .  S
O549        H572   0.966       .  S
C550        O567   1.277       .  A
C550        O559   1.275       .  A
C550       C1106   1.433       .  S
O551       Ni570   1.939       .  S
O551        C557   1.272       .  A
O552       Ni570   1.912       .  S
O552        C554   1.269       .  A
Ni553       O556   1.921       .  S
Ni553       O558   1.907       .  S
C554        O564   1.276       .  A
C554       C1078   1.446       .  S
O555       Ni571   1.920       .  S
O555        C561   1.274       .  A
O556        C561   1.274       .  A
C557       C1064   1.439       .  S
O558        C560   1.266       .  A
O559       Ni570   1.921       .  S
C560        O566   1.270       .  A
C560       C1178   1.441       .  S
C561       C1122   1.435       .  S
H562        O563   0.966       .  S
O563       Ni571   1.913       .  S
O563       Ni565   1.913       .  S
O563       Ni570   1.908       .  S
O564       Ni565   1.940       .  S
Ni565       O569   1.932       .  S
Ni565       O567   1.922       .  S
O566       Ni571   1.934       .  S
C568        O569   1.272       .  A
C568       C1934   1.444       .  S
O573       Ni579   1.919       .  S
O573        C594   1.266       .  A
O574       Ni597   1.909       .  S
O574        C583   1.267       .  A
O575       Ni579   1.914       .  S
O575       Ni597   1.910       .  S
O575       Ni591   1.920       .  S
O575        H598   0.966       .  S
C576        O593   1.278       .  A
C576        O585   1.275       .  A
C576       C1050   1.433       .  S
O577       Ni596   1.934       .  S
O577        C583   1.272       .  A
O578       Ni596   1.913       .  S
O578        C580   1.269       .  A
Ni579       O582   1.920       .  S
Ni579       O584   1.903       .  S
C580        O590   1.274       .  A
C580       C1134   1.446       .  S
O581       Ni597   1.925       .  S
O581        C587   1.276       .  A
O582        C587   1.273       .  A
C583       C1808   1.439       .  S
O584        C586   1.265       .  A
O585       Ni596   1.918       .  S
C586        O592   1.270       .  A
C586       C1358   1.435       .  S
C587       C1036   1.437       .  S
H588        O589   0.966       .  S
O589       Ni597   1.914       .  S
O589       Ni591   1.909       .  S
O589       Ni596   1.905       .  S
O590       Ni591   1.937       .  S
Ni591       O595   1.922       .  S
Ni591       O593   1.926       .  S
O592       Ni597   1.931       .  S
C594        O595   1.269       .  A
C594       C2102   1.438       .  S
O599       Ni605   1.917       .  S
O599        C620   1.265       .  A
O600       Ni623   1.905       .  S
O600        C609   1.266       .  A
O601       Ni605   1.913       .  S
O601       Ni623   1.907       .  S
O601       Ni617   1.921       .  S
O601        H624   0.966       .  S
C602        O619   1.279       .  A
C602        O611   1.275       .  A
C602       C1038   1.436       .  S
O603       Ni622   1.935       .  S
O603        C609   1.271       .  A
O604       Ni622   1.910       .  S
O604        C606   1.269       .  A
Ni605       O608   1.921   1_556  S
Ni605       O610   1.903       .  S
C606        O616   1.274       .  A
C606       C1080   1.444       .  S
O607       Ni623   1.921   1_554  S
O607        C613   1.275       .  A
O608        C613   1.274       .  A
C609       C1864   1.437       .  S
O610        C612   1.265       .  A
O611       Ni622   1.919       .  S
C612        O618   1.271       .  A
C612       C1416   1.439       .  S
C613       C1052   1.435       .  S
H614        O615   0.966       .  S
O615       Ni623   1.913       .  S
O615       Ni617   1.909       .  S
O615       Ni622   1.905       .  S
O616       Ni617   1.937       .  S
Ni617       O621   1.923       .  S
Ni617       O619   1.928       .  S
O618       Ni623   1.936       .  S
C620        O621   1.270       .  A
C620       C2046   1.437       .  S
O625       Ni631   1.916       .  S
O625        C646   1.264       .  A
O626       Ni649   1.907       .  S
O626        C635   1.266       .  A
O627       Ni631   1.913       .  S
O627       Ni649   1.907       .  S
O627       Ni643   1.918       .  S
O627        H650   0.965       .  S
C628        O645   1.277       .  A
C628        O637   1.275       .  A
C628       C1008   1.435       .  S
O629       Ni648   1.937       .  S
O629        C635   1.272       .  A
O630       Ni648   1.912       .  S
O630        C632   1.269       .  A
Ni631       O634   1.918       .  S
Ni631       O636   1.902       .  S
C632        O642   1.272       .  A
C632       C1022   1.441       .  S
O633       Ni649   1.919       .  S
O633        C639   1.275       .  A
O634        C639   1.273       .  A
C635       C1374   1.440       .  S
O636        C638   1.265       .  A
O637       Ni648   1.921       .  S
C638        O644   1.270       .  A
C638       C1822   1.436       .  S
C639        C994   1.432       .  S
H640        O641   0.966       .  S
O641       Ni649   1.914       .  S
O641       Ni643   1.911       .  S
O641       Ni648   1.908       .  S
O642       Ni643   1.930       .  S
Ni643       O647   1.923       .  S
Ni643       O645   1.924       .  S
O644       Ni649   1.933       .  S
C646        O647   1.269       .  A
C646       C1638   1.437       .  S
O651       Ni657   1.920       .  S
O651        C672   1.266       .  A
O652       Ni675   1.908       .  S
O652        C661   1.267       .  A
O653       Ni657   1.915       .  S
O653       Ni675   1.910       .  S
O653       Ni669   1.918       .  S
O653        H676   0.966       .  S
C654        O671   1.277       .  A
C654        O663   1.276       .  A
C654        C996   1.432       .  S
O655       Ni674   1.939       .  S
O655        C661   1.273       .  A
O656       Ni674   1.913       .  S
O656        C658   1.269       .  A
Ni657       O660   1.919   1_556  S
Ni657       O662   1.906       .  S
C658        O668   1.273       .  A
C658        C982   1.444       .  S
O659       Ni675   1.922   1_554  S
O659        C665   1.275       .  A
O660        C665   1.273       .  A
C661       C1428   1.442       .  S
O662        C664   1.266       .  A
O663       Ni674   1.921       .  S
C664        O670   1.270       .  A
C664       C1878   1.438       .  S
C665       C1010   1.435       .  S
H666        O667   0.966       .  S
O667       Ni675   1.911       .  S
O667       Ni669   1.909       .  S
O667       Ni674   1.905       .  S
O668       Ni669   1.935       .  S
Ni669       O673   1.922       .  S
Ni669       O671   1.921       .  S
O670       Ni675   1.932       .  S
C672        O673   1.268       .  A
C672       C1598   1.438       .  S
O677       Ni683   1.915       .  S
O677        C698   1.264       .  A
O678       Ni701   1.902       .  S
O678        C687   1.264       .  A
O679       Ni683   1.912       .  S
O679       Ni701   1.903       .  S
O679       Ni695   1.917       .  S
O679        H702   0.966       .  S
C680        O697   1.276       .  A
C680        O689   1.275       .  A
C680        C966   1.434       .  S
O681       Ni700   1.938       .  S
O681        C687   1.272       .  A
O682       Ni700   1.911       .  S
O682        C684   1.269       .  A
Ni683       O686   1.918       .  S
Ni683       O688   1.906       .  S
C684        O694   1.272       .  A
C684       C1024   1.440       .  S
O685       Ni701   1.922       .  S
O685        C691   1.276       .  A
O686        C691   1.274       .  A
C687       C1232   1.437       .  S
O688        C690   1.265       .  A
O689       Ni700   1.923       .  S
C690        O696   1.269       .  A
C690        C940   1.438       .  S
C691        C952   1.433       .  S
H692        O693   0.966       .  S
O693       Ni701   1.914       .  S
O693       Ni695   1.911       .  S
O693       Ni700   1.909       .  S
O694       Ni695   1.932       .  S
Ni695       O699   1.921       .  S
Ni695       O697   1.920       .  S
O696       Ni701   1.929       .  S
C698        O699   1.268       .  A
C698       C1528   1.435       .  S
O703       Ni709   1.916       .  S
O703        C724   1.264       .  A
O704       Ni727   1.906       .  S
O704        C713   1.266       .  A
O705       Ni709   1.911       .  S
O705       Ni727   1.904       .  S
O705       Ni721   1.917       .  S
O705        H728   0.966       .  S
C706        O723   1.276       .  A
C706        O715   1.275       .  A
C706        C954   1.432       .  S
O707       Ni726   1.939       .  S
O707        C713   1.273       .  A
O708       Ni726   1.911       .  S
O708        C710   1.269       .  A
Ni709       O712   1.917       .  S
Ni709       O714   1.904       .  S
C710        O720   1.275       .  A
C710        C980   1.443       .  S
O711       Ni727   1.924       .  S
O711        C717   1.276       .  A
O712        C717   1.274       .  A
C713       C1192   1.440       .  S
O714        C716   1.265       .  A
O715       Ni726   1.921       .  S
C716        O722   1.270       .  A
C716        C924   1.437       .  S
C717        C968   1.433       .  S
H718        O719   0.966       .  S
O719       Ni727   1.914       .  S
O719       Ni721   1.911       .  S
O719       Ni726   1.905       .  S
O720       Ni721   1.937       .  S
Ni721       O725   1.924       .  S
Ni721       O723   1.921       .  S
O722       Ni727   1.931       .  S
C724        O725   1.270       .  A
C724       C1486   1.436       .  S
O729       Ni735   1.936       .  S
O729        C750   1.272       .  A
O730       Ni753   1.927       .  S
O730        C739   1.271       .  A
O731       Ni735   1.907       .  S
O731       Ni753   1.911       .  S
O731       Ni747   1.913       .  S
O731        H754   0.966       .  S
C732        O749   1.275       .  A
C732        O741   1.274       .  A
C732        C896   1.434       .  S
O733       Ni752   1.919       .  S
O733        C739   1.266       .  A
O734       Ni752   1.908       .  S
O734        C736   1.266       .  A
Ni735       O738   1.919   1_554  S
Ni735       O740   1.911       .  S
C736        O746   1.270       .  A
C736       C1092   1.440       .  S
O737       Ni753   1.925   1_556  S
O737        C743   1.278       .  A
O738        C743   1.275       .  A
C739       C1848   1.441       .  S
O740        C742   1.269       .  A
O741       Ni752   1.919       .  S
C742        O748   1.274       .  A
C742        C912   1.443       .  S
C743        C884   1.434       .  S
H744        O745   0.966       .  S
O745       Ni753   1.919       .  S
O745       Ni747   1.908       .  S
O745       Ni752   1.913       .  S
O746       Ni747   1.932       .  S
Ni747       O751   1.907       .  S
Ni747       O749   1.922       .  S
O748       Ni753   1.936       .  S
C750        O751   1.266       .  A
C750        C938   1.439       .  S
O755       Ni761   1.939       .  S
O755        C776   1.273       .  A
O756       Ni779   1.924       .  S
O756        C765   1.270       .  A
O757       Ni761   1.905       .  S
O757       Ni779   1.909       .  S
O757       Ni773   1.911       .  S
O757        H780   0.966       .  S
C758        O775   1.275       .  A
C758        O767   1.274       .  A
C758        C882   1.434       .  S
O759       Ni778   1.915       .  S
O759        C765   1.265       .  A
O760       Ni778   1.908       .  S
O760        C762   1.266       .  A
Ni761       O764   1.922       .  S
Ni761       O766   1.911       .  S
C762        O772   1.269       .  A
C762       C1066   1.439       .  S
O763       Ni779   1.923       .  S
O763        C769   1.278       .  A
O764        C769   1.276       .  A
C765       C1794   1.437       .  S
O766        C768   1.269       .  A
O767       Ni778   1.919       .  S
C768        O774   1.275       .  A
C768        C870   1.445       .  S
C769        C898   1.434       .  S
H770        O771   0.966       .  S
O771       Ni779   1.920       .  S
O771       Ni773   1.903       .  S
O771       Ni778   1.912       .  S
O772       Ni773   1.930       .  S
Ni773       O777   1.900       .  S
Ni773       O775   1.923       .  S
O774       Ni779   1.939       .  S
C776        O777   1.265       .  A
C776        C926   1.436       .  S
O781       Ni787   1.937       .  S
O781        C802   1.272       .  A
O782       Ni805   1.923       .  S
O782        C791   1.270       .  A
O783       Ni787   1.905       .  S
O783       Ni805   1.909       .  S
O783       Ni799   1.912       .  S
O783        H806   0.966       .  S
C784        O801   1.275       .  A
C784        O793   1.274       .  A
C784        C854   1.434       .  S
O785       Ni804   1.919       .  S
O785        C791   1.266       .  A
O786       Ni804   1.903       .  S
O786        C788   1.265       .  A
Ni787       O790   1.920       .  S
Ni787       O792   1.911       .  S
C788        O798   1.271       .  A
C788       C2002   1.438       .  S
O789       Ni805   1.923       .  S
O789        C795   1.277       .  A
O790        C795   1.275       .  A
C791       C1738   1.437       .  S
O792        C794   1.269       .  A
O793       Ni804   1.921       .  S
C794        O800   1.275       .  A
C794        C868   1.445       .  S
C795        C840   1.433       .  S
H796        O797   0.966       .  S
O797       Ni805   1.918       .  S
O797       Ni799   1.906       .  S
O797       Ni804   1.912       .  S
O798       Ni799   1.935       .  S
Ni799       O803   1.903       .  S
Ni799       O801   1.921       .  S
O800       Ni805   1.939       .  S
C802        O803   1.265       .  A
C802       C1556   1.437       .  S
O807       Ni813   1.933       .  S
O807        C828   1.271       .  A
O808       Ni831   1.925       .  S
O808        C817   1.270       .  A
O809       Ni813   1.906       .  S
O809       Ni831   1.909       .  S
O809       Ni825   1.914       .  S
O809        H832   0.966       .  S
C810        O827   1.276       .  A
C810        O819   1.274       .  A
C810        C842   1.434       .  S
O811       Ni830   1.916       .  S
O811        C817   1.265       .  A
O812       Ni830   1.909       .  S
O812        C814   1.266       .  A
Ni813       O816   1.919       .  S
Ni813       O818   1.911       .  S
C814        O824   1.269       .  A
C814       C1962   1.441       .  S
O815       Ni831   1.924       .  S
O815        C821   1.278       .  A
O816        C821   1.275       .  A
C817       C1710   1.438       .  S
O818        C820   1.269       .  A
O819       Ni830   1.919       .  S
C820        O826   1.274       .  A
C820        C910   1.444       .  S
C821        C856   1.433       .  S
H822        O823   0.966       .  S
O823       Ni831   1.920       .  S
O823       Ni825   1.905       .  S
O823       Ni830   1.913       .  S
O824       Ni825   1.930       .  S
Ni825       O829   1.905       .  S
Ni825       O827   1.923       .  S
O826       Ni831   1.936       .  S
C828        O829   1.265       .  A
C828       C1514   1.436       .  S
C833        C841   1.439       .  S
C833        C834   1.402       .  A
C833        C838   1.400       .  A
C834        C835   1.398       .  A
C834        H843   1.084       .  S
C835        C836   1.400       .  A
C835        H844   1.083       .  S
C836        C839   1.439       .  S
C836        C837   1.403       .  A
C837        C838   1.399       .  A
C837        H845   1.084       .  S
C838        H846   1.083       .  S
C839        C840   1.205       .  T
C841        C842   1.206       .  T
C847        C855   1.439   1_554  S
C847        C848   1.399       .  A
C847        C852   1.403       .  A
C848        C849   1.398       .  A
C848        H857   1.083       .  S
C849        C850   1.402       .  A
C849        H858   1.084       .  S
C850        C853   1.440       .  S
C850        C851   1.401       .  A
C851        C852   1.400       .  A
C851        H859   1.083       .  S
C852        H860   1.084       .  S
C853        C854   1.206       .  T
C855        C856   1.205       .  T
C861        C869   1.451       .  S
C861        C862   1.403       .  A
C861        C866   1.404       .  A
C862        C863   1.404       .  A
C862        H871   1.083       .  S
C863        C864   1.405       .  A
C863        H872   1.083       .  S
C864        C867   1.452       .  S
C864        C865   1.402       .  A
C865        C866   1.403       .  A
C865        H873   1.083       .  S
C866        H874   1.083       .  S
C867        C868   1.213       .  T
C869        C870   1.213       .  T
C875        C883   1.440       .  S
C875        C876   1.402       .  A
C875        C880   1.401       .  A
C876        C877   1.399       .  A
C876        H885   1.084       .  S
C877        C878   1.401       .  A
C877        H886   1.083       .  S
C878        C881   1.440       .  S
C878        C879   1.402       .  A
C879        C880   1.399       .  A
C879        H887   1.084       .  S
C880        H888   1.083       .  S
C881        C882   1.206       .  T
C883        C884   1.206       .  T
C889        C897   1.440       .  S
C889        C890   1.402       .  A
C889        C894   1.401       .  A
C890        C891   1.399       .  A
C890        H899   1.084       .  S
C891        C892   1.401       .  A
C891        H900   1.083       .  S
C892        C895   1.439       .  S
C892        C893   1.402       .  A
C893        C894   1.399       .  A
C893        H901   1.084       .  S
C894        H902   1.083       .  S
C895        C896   1.205       .  T
C897        C898   1.206       .  T
C903        C911   1.450       .  S
C903        C904   1.404       .  A
C903        C908   1.402       .  A
C904        C905   1.403       .  A
C904        H913   1.083       .  S
C905        C906   1.402       .  A
C905        H914   1.083       .  S
C906        C909   1.450       .  S
C906        C907   1.404       .  A
C907        C908   1.403       .  A
C907        H915   1.083       .  S
C908        H916   1.083   1_556  S
C909        C910   1.212       .  T
C911        C912   1.212   1_556  T
C917        C925   1.441       .  S
C917        C918   1.402   1_545  A
C917        C922   1.401   1_545  A
C918        C919   1.401       .  A
C918        H927   1.083   1_565  S
C919        C920   1.403       .  A
C919        H928   1.083       .  S
C920        C923   1.442       .  S
C920        C921   1.401       .  A
C921        C922   1.398       .  A
C921        H929   1.083       .  S
C922        H930   1.083   1_565  S
C923        C924   1.207       .  T
C925        C926   1.207       .  T
C931        C939   1.443       .  S
C931        C932   1.402       .  A
C931        C936   1.402       .  A
C932        C933   1.401       .  A
C932        H941   1.083       .  S
C933        C934   1.403   1_565  A
C933        H942   1.083   1_565  S
C934        C937   1.444       .  S
C934        C935   1.401   1_545  A
C935        C936   1.399       .  A
C935        H943   1.083       .  S
C936        H944   1.083       .  S
C937        C938   1.208       .  T
C939        C940   1.208       .  T
C945        C953   1.438       .  S
C945        C946   1.401       .  A
C945        C950   1.401       .  A
C946        C947   1.399       .  A
C946        H955   1.083       .  S
C947        C948   1.401       .  A
C947        H956   1.083       .  S
C948        C951   1.438   1_556  S
C948        C949   1.401       .  A
C949        C950   1.398       .  A
C949        H957   1.083       .  S
C950        H958   1.083       .  S
C951        C952   1.205       .  T
C953        C954   1.205       .  T
C959        C967   1.439       .  S
C959        C960   1.401       .  A
C959        C964   1.401       .  A
C960        C961   1.399       .  A
C960        H969   1.083       .  S
C961        C962   1.402       .  A
C961        H970   1.083       .  S
C962        C965   1.440       .  S
C962        C963   1.401       .  A
C963        C964   1.398       .  A
C963        H971   1.083       .  S
C964        H972   1.083       .  S
C965        C966   1.206       .  T
C967        C968   1.205       .  T
C973        C981   1.450       .  S
C973        C974   1.403       .  A
C973        C978   1.403       .  A
C974        C975   1.402       .  A
C974        H983   1.083       .  S
C975        C976   1.403       .  A
C975        H984   1.083       .  S
C976        C979   1.450       .  S
C976        C977   1.403       .  A
C977        C978   1.404       .  A
C977        H985   1.083       .  S
C978        H986   1.083       .  S
C979        C980   1.212       .  T
C981        C982   1.212       .  T
C987        C995   1.437       .  S
C987        C988   1.402       .  A
C987        C992   1.400       .  A
C988        C989   1.398       .  A
C988        H997   1.084       .  S
C989        C990   1.400       .  A
C989        H998   1.083       .  S
C990        C993   1.438       .  S
C990        C991   1.402       .  A
C991        C992   1.398       .  A
C991        H999   1.084       .  S
C992       H1000   1.083       .  S
C993        C994   1.205       .  T
C995        C996   1.204       .  T
C1001      C1009   1.441       .  S
C1001      C1002   1.403       .  A
C1001      C1006   1.400       .  A
C1002      C1003   1.400       .  A
C1002      H1011   1.083       .  S
C1003      C1004   1.401       .  A
C1003      H1012   1.083       .  S
C1004      C1007   1.441       .  S
C1004      C1005   1.402       .  A
C1005      C1006   1.398       .  A
C1005      H1013   1.084       .  S
C1006      H1014   1.083       .  S
C1007      C1008   1.206       .  T
C1009      C1010   1.206       .  T
C1015      C1023   1.447       .  S
C1015      C1016   1.401       .  A
C1015      C1020   1.404       .  A
C1016      C1017   1.401       .  A
C1016      H1025   1.083       .  S
C1017      C1018   1.403       .  A
C1017      H1026   1.083       .  S
C1018      C1021   1.447       .  S
C1018      C1019   1.402       .  A
C1019      C1020   1.403       .  A
C1019      H1027   1.083       .  S
C1020      H1028   1.083       .  S
C1021      C1022   1.210       .  T
C1023      C1024   1.210       .  T
C1029      C1037   1.442       .  S
C1029      C1030   1.402       .  A
C1029      C1034   1.401       .  A
C1030      C1031   1.400       .  A
C1030      H1039   1.084       .  S
C1031      C1032   1.402       .  A
C1031      H1040   1.083       .  S
C1032      C1035   1.443       .  S
C1032      C1033   1.402       .  A
C1033      C1034   1.400       .  A
C1033      H1041   1.083       .  S
C1034      H1042   1.083       .  S
C1035      C1036   1.208       .  T
C1037      C1038   1.207       .  T
C1043      C1051   1.440       .  S
C1043      C1044   1.402       .  A
C1043      C1048   1.401       .  A
C1044      C1045   1.400       .  A
C1044      H1053   1.083       .  S
C1045      C1046   1.402       .  A
C1045      H1054   1.083       .  S
C1046      C1049   1.439       .  S
C1046      C1047   1.401       .  A
C1047      C1048   1.398       .  A
C1047      H1055   1.083       .  S
C1048      H1056   1.083       .  S
C1049      C1050   1.205       .  T
C1051      C1052   1.206       .  T
C1057      C1065   1.444       .  S
C1057      C1058   1.402       .  A
C1057      C1062   1.402       .  A
C1058      C1059   1.402       .  A
C1058      H1067   1.083       .  S
C1059      C1060   1.403       .  A
C1059      H1068   1.083       .  S
C1060      C1063   1.444       .  S
C1060      C1061   1.401       .  A
C1061      C1062   1.399       .  A
C1061      H1069   1.083       .  S
C1062      H1070   1.083       .  S
C1063      C1064   1.208       .  T
C1065      C1066   1.208       .  T
C1071      C1079   1.451       .  S
C1071      C1072   1.402       .  A
C1071      C1076   1.405       .  A
C1072      C1073   1.404       .  A
C1072      H1081   1.083       .  S
C1073      C1074   1.405       .  A
C1073      H1082   1.083       .  S
C1074      C1077   1.452       .  S
C1074      C1075   1.402       .  A
C1075      C1076   1.403       .  A
C1075      H1083   1.083       .  S
C1076      H1084   1.084       .  S
C1077      C1078   1.213       .  T
C1079      C1080   1.212       .  T
C1085      C1093   1.445       .  S
C1085      C1086   1.402       .  A
C1085      C1090   1.402       .  A
C1086      C1087   1.401       .  A
C1086      H1095   1.083       .  S
C1087      C1088   1.402       .  A
C1087      H1096   1.083       .  S
C1088      C1091   1.445       .  S
C1088      C1089   1.402       .  A
C1089      C1090   1.401       .  A
C1089      H1097   1.083       .  S
C1090      H1098   1.083       .  S
C1091      C1092   1.209       .  T
C1093      C1094   1.209       .  T
C1099      C1107   1.439   1_556  S
C1099      C1100   1.401       .  A
C1099      C1104   1.401       .  A
C1100      C1101   1.399       .  A
C1100      H1109   1.083       .  S
C1101      C1102   1.402       .  A
C1101      H1110   1.084       .  S
C1102      C1105   1.439       .  S
C1102      C1103   1.400       .  A
C1103      C1104   1.398       .  A
C1103      H1111   1.083       .  S
C1104      H1112   1.083       .  S
C1105      C1106   1.205       .  T
C1107      C1108   1.205       .  T
C1113      C1121   1.440       .  S
C1113      C1114   1.402       .  A
C1113      C1118   1.401       .  A
C1114      C1115   1.398       .  A
C1114      H1123   1.083       .  S
C1115      C1116   1.400       .  A
C1115      H1124   1.083       .  S
C1116      C1119   1.441       .  S
C1116      C1117   1.403       .  A
C1117      C1118   1.400       .  A
C1117      H1125   1.083       .  S
C1118      H1126   1.083       .  S
C1119      C1120   1.206       .  T
C1121      C1122   1.206       .  T
C1127      C1135   1.452       .  S
C1127      C1128   1.403       .  A
C1127      C1132   1.404       .  A
C1128      C1129   1.403       .  A
C1128      H1137   1.083       .  S
C1129      C1130   1.403       .  A
C1129      H1138   1.083       .  S
C1130      C1133   1.452       .  S
C1130      C1131   1.404       .  A
C1131      C1132   1.405       .  A
C1131      H1139   1.083       .  S
C1132      H1140   1.083       .  S
C1133      C1134   1.213       .  T
C1135      C1136   1.213       .  T
C1141      C1149   1.438       .  S
C1141      C1142   1.401       .  A
C1141      C1146   1.401       .  A
C1142      C1143   1.399       .  A
C1142      H1151   1.083       .  S
C1143      C1144   1.402       .  A
C1143      H1152   1.083       .  S
C1144      C1147   1.438       .  S
C1144      C1145   1.401       .  A
C1145      C1146   1.398       .  A
C1145      H1153   1.083       .  S
C1146      H1154   1.084       .  S
C1147      C1148   1.205       .  T
C1149      C1150   1.205       .  T
C1155      C1163   1.439   1_554  S
C1155      C1156   1.402       .  A
C1155      C1160   1.401       .  A
C1156      C1157   1.399       .  A
C1156      H1165   1.084       .  S
C1157      C1158   1.401       .  A
C1157      H1166   1.083       .  S
C1158      C1161   1.440       .  S
C1158      C1159   1.402       .  A
C1159      C1160   1.399       .  A
C1159      H1167   1.083       .  S
C1160      H1168   1.083       .  S
C1161      C1162   1.206       .  T
C1163      C1164   1.206       .  T
C1169      C1177   1.446       .  S
C1169      C1170   1.403       .  A
C1169      C1174   1.402       .  A
C1170      C1171   1.403       .  A
C1170      H1179   1.083       .  S
C1171      C1172   1.404       .  A
C1171      H1180   1.083   1_545  S
C1172      C1175   1.447   1_545  S
C1172      C1173   1.402       .  A
C1173      C1174   1.400       .  A
C1173      H1181   1.083       .  S
C1174      H1182   1.083       .  S
C1175      C1176   1.211       .  T
C1177      C1178   1.210       .  T
C1183      C1191   1.445       .  S
C1183      C1184   1.402       .  A
C1183      C1188   1.402       .  A
C1184      C1185   1.400       .  A
C1184      H1193   1.083       .  S
C1185      C1186   1.402       .  A
C1185      H1194   1.083       .  S
C1186      C1189   1.445       .  S
C1186      C1187   1.403       .  A
C1187      C1188   1.401       .  A
C1187      H1195   1.083       .  S
C1188      H1196   1.083       .  S
C1189      C1190   1.209       .  T
C1191      C1192   1.209       .  T
C1197      C1205   1.449       .  S
C1197      C1198   1.404       .  A
C1197      C1202   1.402       .  A
C1198      C1199   1.403       .  A
C1198      H1207   1.084       .  S
C1199      C1200   1.402       .  A
C1199      H1208   1.083       .  S
C1200      C1203   1.451       .  S
C1200      C1201   1.405       .  A
C1201      C1202   1.403       .  A
C1201      H1209   1.083       .  S
C1202      H1210   1.083       .  S
C1203      C1204   1.212       .  T
C1205      C1206   1.211       .  T
C1211      C1219   1.446   1_545  S
C1211      C1212   1.403       .  A
C1211      C1216   1.402       .  A
C1212      C1213   1.402       .  A
C1212      H1221   1.083       .  S
C1213      C1214   1.402       .  A
C1213      H1222   1.083       .  S
C1214      C1217   1.445       .  S
C1214      C1215   1.402       .  A
C1215      C1216   1.401       .  A
C1215      H1223   1.083       .  S
C1216      H1224   1.083       .  S
C1217      C1218   1.209       .  T
C1219      C1220   1.210       .  T
C1225      C1233   1.442       .  S
C1225      C1226   1.402       .  A
C1225      C1230   1.401       .  A
C1226      C1227   1.402       .  A
C1226      H1235   1.083       .  S
C1227      C1228   1.403       .  A
C1227      H1236   1.083       .  S
C1228      C1231   1.442       .  S
C1228      C1229   1.400       .  A
C1229      C1230   1.397       .  A
C1229      H1237   1.083       .  S
C1230      H1238   1.084       .  S
C1231      C1232   1.207       .  T
C1233      C1234   1.207       .  T
C1239      C1247   1.438       .  S
C1239      C1240   1.399       .  A
C1239      C1244   1.403       .  A
C1240      C1241   1.397       .  A
C1240      H1249   1.083       .  S
C1241      C1242   1.402       .  A
C1241      H1250   1.084       .  S
C1242      C1245   1.438       .  S
C1242      C1243   1.400       .  A
C1243      C1244   1.399       .  A
C1243      H1251   1.083       .  S
C1244      H1252   1.084       .  S
C1245      C1246   1.205       .  T
C1247      C1248   1.205       .  T
C1253      C1261   1.438       .  S
C1253      C1254   1.402       .  A
C1253      C1258   1.400       .  A
C1254      C1255   1.399       .  A
C1254      H1263   1.084       .  S
C1255      C1256   1.401       .  A
C1255      H1264   1.083       .  S
C1256      C1259   1.438       .  S
C1256      C1257   1.401       .  A
C1257      C1258   1.398       .  A
C1257      H1265   1.084       .  S
C1258      H1266   1.083       .  S
C1259      C1260   1.205       .  T
C1261      C1262   1.205       .  T
C1267      C1275   1.447       .  S
C1267      C1268   1.403       .  A
C1267      C1272   1.402       .  A
C1268      C1269   1.403       .  A
C1268      H1277   1.083       .  S
C1269      C1270   1.403       .  A
C1269      H1278   1.083       .  S
C1270      C1273   1.447       .  S
C1270      C1271   1.402       .  A
C1271      C1272   1.401       .  A
C1271      H1279   1.083       .  S
C1272      H1280   1.083       .  S
C1273      C1274   1.210       .  T
C1275      C1276   1.210       .  T
C1281      C1289   1.444       .  S
C1281      C1282   1.401       .  A
C1281      C1286   1.403       .  A
C1282      C1283   1.401       .  A
C1282      H1291   1.083       .  S
C1283      C1284   1.404       .  A
C1283      H1292   1.083       .  S
C1284      C1287   1.443       .  S
C1284      C1285   1.400       .  A
C1285      C1286   1.399       .  A
C1285      H1293   1.083       .  S
C1286      H1294   1.084       .  S
C1287      C1288   1.208       .  T
C1289      C1290   1.208       .  T
C1295      C1303   1.446       .  S
C1295      C1296   1.404       .  A
C1295      C1300   1.401       .  A
C1296      C1297   1.401       .  A
C1296      H1305   1.084       .  S
C1297      C1298   1.401       .  A
C1297      H1306   1.083       .  S
C1298      C1301   1.446       .  S
C1298      C1299   1.404       .  A
C1299      C1300   1.402       .  A
C1299      H1307   1.083       .  S
C1300      H1308   1.083       .  S
C1301      C1302   1.209       .  T
C1303      C1304   1.209       .  T
C1309      C1317   1.438       .  S
C1309      C1310   1.401       .  A
C1309      C1314   1.401       .  A
C1310      C1311   1.398       .  A
C1310      H1319   1.083       .  S
C1311      C1312   1.401       .  A
C1311      H1320   1.083       .  S
C1312      C1315   1.438       .  S
C1312      C1313   1.401       .  A
C1313      C1314   1.399       .  A
C1313      H1321   1.083       .  S
C1314      H1322   1.084       .  S
C1315      C1316   1.205       .  T
C1317      C1318   1.205       .  T
C1323      C1331   1.439   1_554  S
C1323      C1324   1.401       .  A
C1323      C1328   1.401       .  A
C1324      C1325   1.398       .  A
C1324      H1333   1.084       .  S
C1325      C1326   1.400       .  A
C1325      H1334   1.083       .  S
C1326      C1329   1.439       .  S
C1326      C1327   1.402       .  A
C1327      C1328   1.399       .  A
C1327      H1335   1.083       .  S
C1328      H1336   1.083       .  S
C1329      C1330   1.206       .  T
C1331      C1332   1.205       .  T
C1337      C1345   1.448       .  S
C1337      C1338   1.404       .  A
C1337      C1342   1.401       .  A
C1338      C1339   1.402       .  A
C1338      H1347   1.083       .  S
C1339      C1340   1.401       .  A
C1339      H1348   1.083       .  S
C1340      C1343   1.447       .  S
C1340      C1341   1.404       .  A
C1341      C1342   1.403       .  A
C1341      H1349   1.083       .  S
C1342      H1350   1.083       .  S
C1343      C1344   1.210       .  T
C1345      C1346   1.211       .  T
C1351      C1359   1.439       .  S
C1351      C1352   1.401       .  A
C1351      C1356   1.402       .  A
C1352      C1353   1.399       .  A
C1352      H1361   1.083       .  S
C1353      C1354   1.402       .  A
C1353      H1362   1.083       .  S
C1354      C1357   1.440       .  S
C1354      C1355   1.401       .  A
C1355      C1356   1.399       .  A
C1355      H1363   1.083       .  S
C1356      H1364   1.083       .  S
C1357      C1358   1.206       .  T
C1359      C1360   1.206       .  T
C1365      C1373   1.445       .  S
C1365      C1366   1.402       .  A
C1365      C1370   1.402       .  A
C1366      C1367   1.401       .  A
C1366      H1375   1.083       .  S
C1367      C1368   1.402       .  A
C1367      H1376   1.083       .  S
C1368      C1371   1.445       .  S
C1368      C1369   1.402       .  A
C1369      C1370   1.401       .  A
C1369      H1377   1.083       .  S
C1370      H1378   1.083       .  S
C1371      C1372   1.209       .  T
C1373      C1374   1.209       .  T
C1379      C1387   1.447       .  S
C1379      C1380   1.402       .  A
C1379      C1384   1.404       .  A
C1380      C1381   1.402       .  A
C1380      H1389   1.083       .  S
C1381      C1382   1.404       .  A
C1381      H1390   1.084       .  S
C1382      C1385   1.446       .  S
C1382      C1383   1.401       .  A
C1383      C1384   1.402       .  A
C1383      H1391   1.083       .  S
C1384      H1392   1.083       .  S
C1385      C1386   1.210       .  T
C1387      C1388   1.210       .  T
C1393      C1401   1.448       .  S
C1393      C1394   1.402       .  A
C1393      C1398   1.404       .  A
C1394      C1395   1.402       .  A
C1394      H1403   1.083       .  S
C1395      C1396   1.404       .  A
C1395      H1404   1.084       .  S
C1396      C1399   1.449       .  S
C1396      C1397   1.402       .  A
C1397      C1398   1.403       .  A
C1397      H1405   1.083       .  S
C1398      H1406   1.083       .  S
C1399      C1400   1.211       .  T
C1401      C1402   1.210       .  T
C1407      C1415   1.444   1_554  S
C1407      C1408   1.401       .  A
C1407      C1412   1.403   1_554  A
C1408      C1409   1.401       .  A
C1408      H1417   1.083       .  S
C1409      C1410   1.402       .  A
C1409      H1418   1.083       .  S
C1410      C1413   1.445       .  S
C1410      C1411   1.402       .  A
C1411      C1412   1.401   1_554  A
C1411      H1419   1.083       .  S
C1412      H1420   1.084       .  S
C1413      C1414   1.209       .  T
C1415      C1416   1.208       .  T
C1421      C1429   1.446       .  S
C1421      C1422   1.402   1_554  A
C1421      C1426   1.403       .  A
C1422      C1423   1.400       .  A
C1422      H1431   1.084       .  S
C1423      C1424   1.401       .  A
C1423      H1432   1.083       .  S
C1424      C1427   1.447       .  S
C1424      C1425   1.404   1_556  A
C1425      C1426   1.403       .  A
C1425      H1433   1.083       .  S
C1426      H1434   1.083       .  S
C1427      C1428   1.210       .  T
C1429      C1430   1.209       .  T
C1435      C1443   1.439       .  S
C1435      C1436   1.401       .  A
C1435      C1440   1.401       .  A
C1436      C1437   1.398       .  A
C1436      H1445   1.083       .  S
C1437      C1438   1.400       .  A
C1437      H1446   1.083       .  S
C1438      C1441   1.439       .  S
C1438      C1439   1.402       .  A
C1439      C1440   1.399       .  A
C1439      H1447   1.083       .  S
C1440      H1448   1.083       .  S
C1441      C1442   1.205       .  T
C1443      C1444   1.205       .  T
C1449      C1457   1.441       .  S
C1449      C1450   1.401       .  A
C1449      C1454   1.402       .  A
C1450      C1451   1.399       .  A
C1450      H1459   1.083       .  S
C1451      C1452   1.402       .  A
C1451      H1460   1.084       .  S
C1452      C1455   1.441       .  S
C1452      C1453   1.401       .  A
C1453      C1454   1.400       .  A
C1453      H1461   1.083       .  S
C1454      H1462   1.083       .  S
C1455      C1456   1.206       .  T
C1457      C1458   1.206       .  T
C1463      C1471   1.449       .  S
C1463      C1464   1.404       .  A
C1463      C1468   1.402       .  A
C1464      C1465   1.401       .  A
C1464      H1473   1.083       .  S
C1465      C1466   1.401       .  A
C1465      H1474   1.083       .  S
C1466      C1469   1.449       .  S
C1466      C1467   1.405       .  A
C1467      C1468   1.404       .  A
C1467      H1475   1.083       .  S
C1468      H1476   1.083       .  S
C1469      C1470   1.211       .  T
C1471      C1472   1.211       .  T
C1477      C1485   1.443       .  S
C1477      C1478   1.400       .  A
C1477      C1482   1.404       .  A
C1478      C1479   1.401       .  A
C1478      H1487   1.083       .  S
C1479      C1480   1.404       .  A
C1479      H1488   1.083       .  S
C1480      C1483   1.442       .  S
C1480      C1481   1.400       .  A
C1481      C1482   1.400       .  A
C1481      H1489   1.083       .  S
C1482      H1490   1.084       .  S
C1483      C1484   1.207       .  T
C1485      C1486   1.208       .  T
C1491      C1499   1.440       .  S
C1491      C1492   1.401       .  A
C1491      C1496   1.402       .  A
C1492      C1493   1.398       .  A
C1492      H1501   1.083       .  S
C1493      C1494   1.401       .  A
C1493      H1502   1.084       .  S
C1494      C1497   1.440   1_655  S
C1494      C1495   1.401       .  A
C1495      C1496   1.400       .  A
C1495      H1503   1.083       .  S
C1496      H1504   1.083       .  S
C1497      C1498   1.206       .  T
C1499      C1500   1.206       .  T
C1505      C1513   1.441       .  S
C1505      C1506   1.402   1_545  A
C1505      C1510   1.400   1_545  A
C1506      C1507   1.400       .  A
C1506      H1515   1.083   1_565  S
C1507      C1508   1.402       .  A
C1507      H1516   1.083       .  S
C1508      C1511   1.441       .  S
C1508      C1509   1.401       .  A
C1509      C1510   1.398       .  A
C1509      H1517   1.083       .  S
C1510      H1518   1.083   1_565  S
C1511      C1512   1.206       .  T
C1513      C1514   1.206       .  T
C1519      C1527   1.442       .  S
C1519      C1520   1.399       .  A
C1519      C1524   1.404       .  A
C1520      C1521   1.399       .  A
C1520      H1529   1.083       .  S
C1521      C1522   1.403       .  A
C1521      H1530   1.084       .  S
C1522      C1525   1.442       .  S
C1522      C1523   1.400       .  A
C1523      C1524   1.400       .  A
C1523      H1531   1.083       .  S
C1524      H1532   1.084       .  S
C1525      C1526   1.207       .  T
C1527      C1528   1.207       .  T
C1533      C1541   1.444       .  S
C1533      C1534   1.402   1_455  A
C1533      C1538   1.402   1_455  A
C1534      C1535   1.400       .  A
C1534      H1543   1.083       .  S
C1535      C1536   1.403       .  A
C1535      H1544   1.083       .  S
C1536      C1539   1.443       .  S
C1536      C1537   1.401       .  A
C1537      C1538   1.400       .  A
C1537      H1545   1.083       .  S
C1538      H1546   1.083   1_655  S
C1539      C1540   1.208       .  T
C1541      C1542   1.208       .  T
C1547      C1555   1.442       .  S
C1547      C1548   1.402   1_545  A
C1547      C1552   1.402   1_545  A
C1548      C1549   1.400       .  A
C1548      H1557   1.083   1_565  S
C1549      C1550   1.402       .  A
C1549      H1558   1.083       .  S
C1550      C1553   1.442       .  S
C1550      C1551   1.402       .  A
C1551      C1552   1.400       .  A
C1551      H1559   1.083       .  S
C1552      H1560   1.083   1_565  S
C1553      C1554   1.207       .  T
C1555      C1556   1.207       .  T
C1561      C1569   1.440       .  S
C1561      C1562   1.401       .  A
C1561      C1566   1.402       .  A
C1562      C1563   1.399       .  A
C1562      H1571   1.083       .  S
C1563      C1564   1.401       .  A
C1563      H1572   1.083       .  S
C1564      C1567   1.440   1_556  S
C1564      C1565   1.401       .  A
C1565      C1566   1.399       .  A
C1565      H1573   1.083       .  S
C1566      H1574   1.083       .  S
C1567      C1568   1.206       .  T
C1569      C1570   1.206       .  T
C1575      C1583   1.440       .  S
C1575      C1576   1.401       .  A
C1575      C1580   1.402       .  A
C1576      C1577   1.398       .  A
C1576      H1585   1.083       .  S
C1577      C1578   1.401       .  A
C1577      H1586   1.083       .  S
C1578      C1581   1.440       .  S
C1578      C1579   1.402       .  A
C1579      C1580   1.400       .  A
C1579      H1587   1.083       .  S
C1580      H1588   1.083       .  S
C1581      C1582   1.206       .  T
C1583      C1584   1.206       .  T
C1589      C1597   1.444       .  S
C1589      C1590   1.403       .  A
C1589      C1594   1.401       .  A
C1590      C1591   1.399       .  A
C1590      H1599   1.083       .  S
C1591      C1592   1.399       .  A
C1591      H1600   1.083   1_556  S
C1592      C1595   1.443       .  S
C1592      C1593   1.404       .  A
C1593      C1594   1.402       .  A
C1593      H1601   1.084       .  S
C1594      H1602   1.083       .  S
C1595      C1596   1.208       .  T
C1597      C1598   1.208       .  T
C1603      C1611   1.444       .  S
C1603      C1604   1.403   1_455  A
C1603      C1608   1.402   1_455  A
C1604      C1605   1.401       .  A
C1604      H1613   1.083       .  S
C1605      C1606   1.402       .  A
C1605      H1614   1.083       .  S
C1606      C1609   1.444       .  S
C1606      C1607   1.402       .  A
C1607      C1608   1.400       .  A
C1607      H1615   1.083       .  S
C1608      H1616   1.083       .  S
C1609      C1610   1.209       .  T
C1611      C1612   1.209       .  T
C1617      C1625   1.450       .  S
C1617      C1618   1.403       .  A
C1617      C1622   1.404       .  A
C1618      C1619   1.404       .  A
C1618      H1627   1.083       .  S
C1619      C1620   1.405       .  A
C1619      H1628   1.083       .  S
C1620      C1623   1.450       .  S
C1620      C1621   1.402       .  A
C1621      C1622   1.402       .  A
C1621      H1629   1.083       .  S
C1622      H1630   1.083       .  S
C1623      C1624   1.212       .  T
C1625      C1626   1.212       .  T
C1631      C1639   1.445       .  S
C1631      C1632   1.404       .  A
C1631      C1636   1.401       .  A
C1632      C1633   1.400       .  A
C1632      H1641   1.084       .  S
C1633      C1634   1.400       .  A
C1633      H1642   1.083       .  S
C1634      C1637   1.444       .  S
C1634      C1635   1.404       .  A
C1635      C1636   1.402       .  A
C1635      H1643   1.083       .  S
C1636      H1644   1.083       .  S
C1637      C1638   1.208       .  T
C1639      C1640   1.209       .  T
C1645      C1653   1.446       .  S
C1645      C1646   1.402       .  A
C1645      C1650   1.403       .  A
C1646      C1647   1.401       .  A
C1646      H1655   1.083       .  S
C1647      C1648   1.402   1_655  A
C1647      H1656   1.083   1_655  S
C1648      C1651   1.446       .  S
C1648      C1649   1.403   1_455  A
C1649      C1650   1.401       .  A
C1649      H1657   1.083       .  S
C1650      H1658   1.084       .  S
C1651      C1652   1.210       .  T
C1653      C1654   1.210       .  T
C1659      C1667   1.437       .  S
C1659      C1660   1.402       .  A
C1659      C1664   1.400       .  A
C1660      C1661   1.398       .  A
C1660      H1669   1.084       .  S
C1661      C1662   1.400       .  A
C1661      H1670   1.083       .  S
C1662      C1665   1.437       .  S
C1662      C1663   1.401       .  A
C1663      C1664   1.398       .  A
C1663      H1671   1.084       .  S
C1664      H1672   1.083       .  S
C1665      C1666   1.204       .  T
C1667      C1668   1.204       .  T
C1673      C1681   1.438       .  S
C1673      C1674   1.400       .  A
C1673      C1678   1.402       .  A
C1674      C1675   1.398       .  A
C1674      H1683   1.083       .  S
C1675      C1676   1.402       .  A
C1675      H1684   1.084       .  S
C1676      C1679   1.438       .  S
C1676      C1677   1.400       .  A
C1677      C1678   1.398       .  A
C1677      H1685   1.083       .  S
C1678      H1686   1.084       .  S
C1679      C1680   1.205       .  T
C1681      C1682   1.205       .  T
C1687      C1695   1.447       .  S
C1687      C1688   1.402       .  A
C1687      C1692   1.403       .  A
C1688      C1689   1.403       .  A
C1688      H1697   1.083       .  S
C1689      C1690   1.404       .  A
C1689      H1698   1.083       .  S
C1690      C1693   1.448       .  S
C1690      C1691   1.402       .  A
C1691      C1692   1.401       .  A
C1691      H1699   1.083       .  S
C1692      H1700   1.083       .  S
C1693      C1694   1.210       .  T
C1695      C1696   1.210       .  T
C1701      C1709   1.445       .  S
C1701      C1702   1.401       .  A
C1701      C1706   1.404       .  A
C1702      C1703   1.401       .  A
C1702      H1711   1.083       .  S
C1703      C1704   1.404       .  A
C1703      H1712   1.084       .  S
C1704      C1707   1.445       .  S
C1704      C1705   1.401       .  A
C1705      C1706   1.401       .  A
C1705      H1713   1.083       .  S
C1706      H1714   1.083       .  S
C1707      C1708   1.209       .  T
C1709      C1710   1.209       .  T
C1715      C1723   1.446       .  S
C1715      C1716   1.402       .  A
C1715      C1720   1.402       .  A
C1716      C1717   1.402       .  A
C1716      H1725   1.083       .  S
C1717      C1718   1.403       .  A
C1717      H1726   1.083       .  S
C1718      C1721   1.446       .  S
C1718      C1719   1.402       .  A
C1719      C1720   1.401       .  A
C1719      H1727   1.083       .  S
C1720      H1728   1.083       .  S
C1721      C1722   1.210       .  T
C1723      C1724   1.210       .  T
C1729      C1737   1.444       .  S
C1729      C1730   1.403       .  A
C1729      C1734   1.401       .  A
C1730      C1731   1.399       .  A
C1730      H1739   1.084       .  S
C1731      C1732   1.400       .  A
C1731      H1740   1.083       .  S
C1732      C1735   1.444       .  S
C1732      C1733   1.404       .  A
C1733      C1734   1.402       .  A
C1733      H1741   1.083       .  S
C1734      H1742   1.083       .  S
C1735      C1736   1.208       .  T
C1737      C1738   1.208       .  T
C1743      C1751   1.442       .  S
C1743      C1744   1.402       .  A
C1743      C1748   1.402       .  A
C1744      C1745   1.400       .  A
C1744      H1753   1.083       .  S
C1745      C1746   1.401       .  A
C1745      H1754   1.083       .  S
C1746      C1749   1.442       .  S
C1746      C1747   1.402       .  A
C1747      C1748   1.400       .  A
C1747      H1755   1.083       .  S
C1748      H1756   1.083       .  S
C1749      C1750   1.207       .  T
C1751      C1752   1.208       .  T
C1757      C1765   1.440       .  S
C1757      C1758   1.401       .  A
C1757      C1762   1.402       .  A
C1758      C1759   1.399       .  A
C1758      H1767   1.083       .  S
C1759      C1760   1.401       .  A
C1759      H1768   1.083       .  S
C1760      C1763   1.440       .  S
C1760      C1761   1.401       .  A
C1761      C1762   1.399       .  A
C1761      H1769   1.083       .  S
C1762      H1770   1.084       .  S
C1763      C1764   1.206       .  T
C1765      C1766   1.206       .  T
C1771      C1779   1.438       .  S
C1771      C1772   1.402       .  A
C1771      C1776   1.400       .  A
C1772      C1773   1.399       .  A
C1772      H1781   1.084       .  S
C1773      C1774   1.401       .  A
C1773      H1782   1.083       .  S
C1774      C1777   1.438   1_554  S
C1774      C1775   1.402       .  A
C1775      C1776   1.398       .  A
C1775      H1783   1.084       .  S
C1776      H1784   1.083       .  S
C1777      C1778   1.205       .  T
C1779      C1780   1.205       .  T
C1785      C1793   1.444       .  S
C1785      C1786   1.403       .  A
C1785      C1790   1.401       .  A
C1786      C1787   1.402       .  A
C1786      H1795   1.083       .  S
C1787      C1788   1.402       .  A
C1787      H1796   1.083       .  S
C1788      C1791   1.444       .  S
C1788      C1789   1.402       .  A
C1789      C1790   1.399       .  A
C1789      H1797   1.084       .  S
C1790      H1798   1.084       .  S
C1791      C1792   1.208       .  T
C1793      C1794   1.208       .  T
C1799      C1807   1.444       .  S
C1799      C1800   1.403       .  A
C1799      C1804   1.401       .  A
C1800      C1801   1.401       .  A
C1800      H1809   1.083       .  S
C1801      C1802   1.402       .  A
C1801      H1810   1.083       .  S
C1802      C1805   1.444       .  S
C1802      C1803   1.402       .  A
C1803      C1804   1.400       .  A
C1803      H1811   1.083       .  S
C1804      H1812   1.083       .  S
C1805      C1806   1.208       .  T
C1807      C1808   1.208       .  T
C1813      C1821   1.442       .  S
C1813      C1814   1.402       .  A
C1813      C1818   1.401       .  A
C1814      C1815   1.400       .  A
C1814      H1823   1.083       .  S
C1815      C1816   1.402       .  A
C1815      H1824   1.083       .  S
C1816      C1819   1.442       .  S
C1816      C1817   1.402       .  A
C1817      C1818   1.399       .  A
C1817      H1825   1.083       .  S
C1818      H1826   1.083       .  S
C1819      C1820   1.207       .  T
C1821      C1822   1.207       .  T
C1827      C1835   1.447       .  S
C1827      C1828   1.404       .  A
C1827      C1832   1.402       .  A
C1828      C1829   1.401       .  A
C1828      H1837   1.084       .  S
C1829      C1830   1.401       .  A
C1829      H1838   1.083       .  S
C1830      C1833   1.448       .  S
C1830      C1831   1.405       .  A
C1831      C1832   1.403       .  A
C1831      H1839   1.084       .  S
C1832      H1840   1.083       .  S
C1833      C1834   1.210       .  T
C1835      C1836   1.210       .  T
C1841      C1849   1.447       .  S
C1841      C1842   1.403       .  A
C1841      C1846   1.403       .  A
C1842      C1843   1.400       .  A
C1842      H1851   1.084       .  S
C1843      C1844   1.402       .  A
C1843      H1852   1.084       .  S
C1844      C1847   1.447       .  S
C1844      C1845   1.404       .  A
C1845      C1846   1.404       .  A
C1845      H1853   1.083       .  S
C1846      H1854   1.083       .  S
C1847      C1848   1.210       .  T
C1849      C1850   1.210       .  T
C1855      C1863   1.442       .  S
C1855      C1856   1.402   1_556  A
C1855      C1860   1.401       .  A
C1856      C1857   1.401       .  A
C1856      H1865   1.083       .  S
C1857      C1858   1.402       .  A
C1857      H1866   1.083       .  S
C1858      C1861   1.442       .  S
C1858      C1859   1.402   1_554  A
C1859      C1860   1.399       .  A
C1859      H1867   1.084       .  S
C1860      H1868   1.084       .  S
C1861      C1862   1.207       .  T
C1863      C1864   1.207       .  T
C1869      C1877   1.443       .  S
C1869      C1870   1.402       .  A
C1869      C1874   1.402   1_556  A
C1870      C1871   1.402   1_556  A
C1870      H1879   1.083       .  S
C1871      C1872   1.403       .  A
C1871      H1880   1.083       .  S
C1872      C1875   1.444       .  S
C1872      C1873   1.401       .  A
C1873      C1874   1.400       .  A
C1873      H1881   1.083       .  S
C1874      H1882   1.084       .  S
C1875      C1876   1.209       .  T
C1877      C1878   1.208       .  T
C1883      C1891   1.438       .  S
C1883      C1884   1.401       .  A
C1883      C1888   1.401       .  A
C1884      C1885   1.398       .  A
C1884      H1893   1.084       .  S
C1885      C1886   1.401       .  A
C1885      H1894   1.083       .  S
C1886      C1889   1.438       .  S
C1886      C1887   1.402       .  A
C1887      C1888   1.399       .  A
C1887      H1895   1.083       .  S
C1888      H1896   1.083       .  S
C1889      C1890   1.205       .  T
C1891      C1892   1.205       .  T
C1897      C1905   1.438       .  S
C1897      C1898   1.402       .  A
C1897      C1902   1.399       .  A
C1898      C1899   1.398       .  A
C1898      H1907   1.084       .  S
C1899      C1900   1.400       .  A
C1899      H1908   1.083       .  S
C1900      C1903   1.438       .  S
C1900      C1901   1.402       .  A
C1901      C1902   1.398       .  A
C1901      H1909   1.084       .  S
C1902      H1910   1.083       .  S
C1903      C1904   1.205       .  T
C1905      C1906   1.204       .  T
C1911      C1919   1.452       .  S
C1911      C1912   1.406       .  A
C1911      C1916   1.401       .  A
C1912      C1913   1.405       .  A
C1912      H1921   1.083       .  S
C1913      C1914   1.403       .  A
C1913      H1922   1.083       .  S
C1914      C1917   1.450       .  S
C1914      C1915   1.404       .  A
C1915      C1916   1.402       .  A
C1915      H1923   1.083       .  S
C1916      H1924   1.083       .  S
C1917      C1918   1.212       .  T
C1919      C1920   1.213       .  T
C1925      C1933   1.452       .  S
C1925      C1926   1.405       .  A
C1925      C1930   1.402       .  A
C1926      C1927   1.404       .  A
C1926      H1935   1.083       .  S
C1927      C1928   1.402       .  A
C1927      H1936   1.083       .  S
C1928      C1931   1.452       .  S
C1928      C1929   1.405       .  A
C1929      C1930   1.404       .  A
C1929      H1937   1.083       .  S
C1930      H1938   1.083       .  S
C1931      C1932   1.213       .  T
C1933      C1934   1.213       .  T
C1939      C1947   1.444       .  S
C1939      C1940   1.401       .  A
C1939      C1944   1.403       .  A
C1940      C1941   1.400       .  A
C1940      H1949   1.083       .  S
C1941      C1942   1.402       .  A
C1941      H1950   1.083       .  S
C1942      C1945   1.445   1_545  S
C1942      C1943   1.402       .  A
C1943      C1944   1.401       .  A
C1943      H1951   1.083       .  S
C1944      H1952   1.083       .  S
C1945      C1946   1.209       .  T
C1947      C1948   1.208       .  T
C1953      C1961   1.446       .  S
C1953      C1954   1.401       .  A
C1953      C1958   1.403       .  A
C1954      C1955   1.399       .  A
C1954      H1963   1.083       .  S
C1955      C1956   1.401   1_455  A
C1955      H1964   1.083       .  S
C1956      C1959   1.447       .  S
C1956      C1957   1.404   1_655  A
C1957      C1958   1.404       .  A
C1957      H1965   1.083   1_455  S
C1958      H1966   1.083       .  S
C1959      C1960   1.211       .  T
C1961      C1962   1.209       .  T
C1967      C1975   1.448       .  S
C1967      C1968   1.404       .  A
C1967      C1972   1.402       .  A
C1968      C1969   1.401       .  A
C1968      H1977   1.084       .  S
C1969      C1970   1.401       .  A
C1969      H1978   1.083       .  S
C1970      C1973   1.448       .  S
C1970      C1971   1.405       .  A
C1971      C1972   1.403       .  A
C1971      H1979   1.083       .  S
C1972      H1980   1.083       .  S
C1973      C1974   1.210       .  T
C1975      C1976   1.211       .  T
C1981      C1989   1.444       .  S
C1981      C1982   1.402       .  A
C1981      C1986   1.402       .  A
C1982      C1983   1.400       .  A
C1982      H1991   1.083       .  S
C1983      C1984   1.402       .  A
C1983      H1992   1.083       .  S
C1984      C1987   1.444   1_545  S
C1984      C1985   1.402       .  A
C1985      C1986   1.401       .  A
C1985      H1993   1.083       .  S
C1986      H1994   1.083       .  S
C1987      C1988   1.208       .  T
C1989      C1990   1.209       .  T
C1995      C2003   1.444       .  S
C1995      C1996   1.402   1_655  A
C1995      C2000   1.402   1_655  A
C1996      C1997   1.401       .  A
C1996      H2005   1.083   1_455  S
C1997      C1998   1.402       .  A
C1997      H2006   1.083       .  S
C1998      C2001   1.444       .  S
C1998      C1999   1.402       .  A
C1999      C2000   1.400       .  A
C1999      H2007   1.083       .  S
C2000      H2008   1.083   1_455  S
C2001      C2002   1.208       .  T
C2003      C2004   1.208       .  T
C2009      C2017   1.439       .  S
C2009      C2010   1.400       .  A
C2009      C2014   1.402       .  A
C2010      C2011   1.399       .  A
C2010      H2019   1.083       .  S
C2011      C2012   1.402       .  A
C2011      H2020   1.083       .  S
C2012      C2015   1.439   1_556  S
C2012      C2013   1.401       .  A
C2013      C2014   1.399       .  A
C2013      H2021   1.083       .  S
C2014      H2022   1.084       .  S
C2015      C2016   1.205       .  T
C2017      C2018   1.205       .  T
C2023      C2031   1.439       .  S
C2023      C2024   1.401       .  A
C2023      C2028   1.402       .  A
C2024      C2025   1.398       .  A
C2024      H2033   1.083       .  S
C2025      C2026   1.401       .  A
C2025      H2034   1.083       .  S
C2026      C2029   1.439       .  S
C2026      C2027   1.401       .  A
C2027      C2028   1.399       .  A
C2027      H2035   1.083       .  S
C2028      H2036   1.083       .  S
C2029      C2030   1.205       .  T
C2031      C2032   1.205       .  T
C2037      C2045   1.443       .  S
C2037      C2038   1.403       .  A
C2037      C2042   1.401       .  A
C2038      C2039   1.399       .  A
C2038      H2047   1.084       .  S
C2039      C2040   1.399       .  A
C2039      H2048   1.083   1_556  S
C2040      C2043   1.443       .  S
C2040      C2041   1.404       .  A
C2041      C2042   1.402       .  A
C2041      H2049   1.083       .  S
C2042      H2050   1.083       .  S
C2043      C2044   1.207       .  T
C2045      C2046   1.208       .  T
C2051      C2059   1.441       .  S
C2051      C2052   1.402       .  A
C2051      C2056   1.401       .  A
C2052      C2053   1.399       .  A
C2052      H2061   1.083       .  S
C2053      C2054   1.401       .  A
C2053      H2062   1.083       .  S
C2054      C2057   1.441       .  S
C2054      C2055   1.402       .  A
C2055      C2056   1.399       .  A
C2055      H2063   1.083       .  S
C2056      H2064   1.083       .  S
C2057      C2058   1.206       .  T
C2059      C2060   1.206       .  T
C2065      C2073   1.442       .  S
C2065      C2066   1.402       .  A
C2065      C2070   1.401       .  A
C2066      C2067   1.399       .  A
C2066      H2075   1.084       .  S
C2067      C2068   1.401   1_455  A
C2067      H2076   1.083       .  S
C2068      C2071   1.441       .  S
C2068      C2069   1.402   1_655  A
C2069      C2070   1.400       .  A
C2069      H2077   1.083   1_455  S
C2070      H2078   1.083       .  S
C2071      C2072   1.207       .  T
C2073      C2074   1.207       .  T
C2079      C2087   1.447       .  S
C2079      C2080   1.404       .  A
C2079      C2084   1.401       .  A
C2080      C2081   1.402       .  A
C2080      H2089   1.084       .  S
C2081      C2082   1.401       .  A
C2081      H2090   1.083       .  S
C2082      C2085   1.447       .  S
C2082      C2083   1.404       .  A
C2083      C2084   1.402       .  A
C2083      H2091   1.083       .  S
C2084      H2092   1.083       .  S
C2085      C2086   1.210       .  T
C2087      C2088   1.210       .  T
C2093      C2101   1.445       .  S
C2093      C2094   1.403       .  A
C2093      C2098   1.401       .  A
C2094      C2095   1.400       .  A
C2094      H2103   1.084       .  S
C2095      C2096   1.400       .  A
C2095      H2104   1.083       .  S
C2096      C2099   1.445       .  S
C2096      C2097   1.404       .  A
C2097      C2098   1.402       .  A
C2097      H2105   1.083       .  S
C2098      H2106   1.083       .  S
C2099      C2100   1.208       .  T
C2101      C2102   1.209       .  T
C2107      C2115   1.442       .  S
C2107      C2108   1.402       .  A
C2107      C2112   1.402       .  A
C2108      C2109   1.400       .  A
C2108      H2117   1.083       .  S
C2109      C2110   1.401       .  A
C2109      H2118   1.083       .  S
C2110      C2113   1.442       .  S
C2110      C2111   1.402       .  A
C2111      C2112   1.400       .  A
C2111      H2119   1.083       .  S
C2112      H2120   1.083       .  S
C2113      C2114   1.207       .  T
C2115      C2116   1.207       .  T
C2121      C2129   1.444       .  S
C2121      C2122   1.402       .  A
C2121      C2126   1.402       .  A
C2122      C2123   1.400       .  A
C2122      H2131   1.084       .  S
C2123      C2124   1.401   1_455  A
C2123      H2132   1.084       .  S
C2124      C2127   1.443       .  S
C2124      C2125   1.402   1_655  A
C2125      C2126   1.401       .  A
C2125      H2133   1.083   1_455  S
C2126      H2134   1.083       .  S
C2127      C2128   1.208       .  T
C2129      C2130   1.208       .  T
C2135      C2143   1.440       .  S
C2135      C2136   1.400       .  A
C2135      C2140   1.403       .  A
C2136      C2137   1.398       .  A
C2136      H2145   1.083       .  S
C2137      C2138   1.402       .  A
C2137      H2146   1.084       .  S
C2138      C2141   1.440       .  S
C2138      C2139   1.401       .  A
C2139      C2140   1.400       .  A
C2139      H2147   1.083       .  S
C2140      H2148   1.083       .  S
C2141      C2142   1.206       .  T
C2143      C2144   1.206       .  T
C2149      C2157   1.439       .  S
C2149      C2150   1.402       .  A
C2149      C2154   1.401       .  A
C2150      C2151   1.400       .  A
C2150      H2159   1.083       .  S
C2151      C2152   1.402       .  A
C2151      H2160   1.083       .  S
C2152      C2155   1.439       .  S
C2152      C2153   1.400       .  A
C2153      C2154   1.398       .  A
C2153      H2161   1.083       .  S
C2154      H2162   1.083       .  S
C2155      C2156   1.205       .  T
C2157      C2158   1.205       .  T
C2163      C2171   1.451       .  S
C2163      C2164   1.403       .  A
C2163      C2168   1.403       .  A
C2164      C2165   1.402       .  A
C2164      H2173   1.083       .  S
C2165      C2166   1.403       .  A
C2165      H2174   1.083       .  S
C2166      C2169   1.450       .  S
C2166      C2167   1.404       .  A
C2167      C2168   1.404       .  A
C2167      H2175   1.083       .  S
C2168      H2176   1.083       .  S
C2169      C2170   1.212       .  T
C2171      C2172   1.212       .  T
