geometry optimzed in LAMMPS
_audit_creation_date              2020-12-01 
_audit_creation_method            'lammps2cif' 
_symmetry_space_group_name_H-M    'P1' 
_symmetry_Int_Tables_number       1 
_symmetry_cell_setting            triclinic 
loop_ 
_symmetry_equiv_pos_as_xyz 
  x,y,z 
_cell_length_a                    26.72780741 
_cell_length_b                    26.6859614012307 
_cell_length_c                    50.06606249919486 
_cell_angle_alpha                 90.17279122242152 
_cell_angle_beta                  89.95851334219842 
_cell_angle_gamma                 89.49027731699444 
loop_ 
_atom_site_label 
_atom_site_type_symbol 
_atom_site_fract_x 
_atom_site_fract_y 
_atom_site_fract_z 
_atom_site_charge 
O1          O  0.98158672  0.77246068  0.63725788    -0.84900
O2          O  0.89103547  0.78421557  0.61212472    -0.82000
C3          C  0.84520872  0.77938662  0.60696088     0.98500
O4          O  0.81399425  0.76988576  0.62531649    -0.82000
O5          O  0.83314607  0.67420942  0.64114433    -0.84700
C6          C  0.85588156  0.63673759  0.65037412     1.03000
O7          O  0.89030188  0.64214823  0.66752011    -0.77400
O8          O  0.96641229  0.69293102  0.64225783    -0.77600
C9          C  0.98996851  0.72728499  0.63067888     1.03000
O10         O  0.94071914  0.82572122  0.68283702    -0.84900
O11         O  0.85418641  0.84622670  0.65421767    -0.82000
C12         C  0.81768941  0.84162735  0.67011925     0.98500
O13         O  0.80942603  0.79994115  0.68084723    -0.82000
O14         O  0.82238745  0.70180015  0.69663821    -0.84600
C15         C  0.85381919  0.69876765  0.71555440     1.03000
O16         O  0.89915082  0.70940975  0.71194727    -0.77500
O17         O  0.98134715  0.75516988  0.68986473    -0.77600
C18         C  0.97424417  0.80143623  0.69505756     1.03000
Cr19       Cr  0.91509293  0.80301467  0.64787365     1.93700
Cr20       Cr  0.82489399  0.73732903  0.66118819     1.93200
Cr21       Cr  0.93143999  0.70341762  0.67669536     1.39100
O22         O  0.89019959  0.74793646  0.66212930    -1.22700
O23         O  0.27402180  0.50703545  0.38593808    -0.84900
O24         O  0.29284384  0.60094631  0.36725665    -0.82000
C25         C  0.29092242  0.64770598  0.36429852     0.98500
O26         O  0.27716727  0.67608769  0.38331375    -0.82000
O27         O  0.17863201  0.65780472  0.39298740    -0.84700
C28         C  0.13933870  0.63551193  0.39945248     1.03000
O29         O  0.14084401  0.59852348  0.41522661    -0.77400
O30         O  0.19380022  0.52369876  0.38890621    -0.77600
C31         C  0.22953312  0.50055412  0.37785539     1.03000
O32         O  0.31871515  0.53764327  0.43645227    -0.84900
O33         O  0.34648141  0.62786479  0.41376525    -0.82000
C34         C  0.33885868  0.66354493  0.43003729     0.98500
O35         O  0.29600144  0.67055780  0.43977683    -0.82000
O36         O  0.19554637  0.65855704  0.45002467    -0.84600
C37         C  0.18898656  0.62445300  0.46726148     1.03000
O38         O  0.19914917  0.57930396  0.46196383    -0.77500
O39         O  0.24661312  0.49888802  0.43788184    -0.77600
C40         C  0.29138753  0.50382138  0.44583271     1.03000
Cr41       Cr  0.30372647  0.56990812  0.40210109     1.93700
Cr42       Cr  0.23741448  0.66047006  0.41649955     1.93200
Cr43       Cr  0.19893236  0.55314526  0.42507649     1.39100
O44         O  0.24669646  0.59468997  0.41471062    -1.22700
O45         O  0.96771561  0.23723938  0.14196989    -0.84900
O46         O  0.05503600  0.22510457  0.11445027    -0.82000
C47         C  0.10054355  0.22614312  0.10806638     0.98500
O48         O  0.13364440  0.23105460  0.12610791    -0.82000
O49         O  0.12086871  0.32703716  0.14201497    -0.84700
C50         C  0.10051984  0.36598102  0.15110836     1.03000
O51         O  0.06704582  0.36317739  0.16908009    -0.77400
O52         O  0.98609724  0.31569225  0.14621388    -0.77600
C53         C  0.96134656  0.28210779  0.13457910     1.03000
O54         O  0.01131584  0.18214056  0.18566854    -0.84900
O55         O  0.09391216  0.15911209  0.15438165    -0.82000
C56         C  0.13109035  0.16140927  0.16997787     0.98500
O57         O  0.14028408  0.20190205  0.18185852    -0.82000
O58         O  0.13450718  0.30175887  0.19767289    -0.84600
C59         C  0.10467288  0.30678398  0.21733497     1.03000
O60         O  0.05882502  0.29748901  0.21446230    -0.77500
O61         O  0.97382204  0.25411965  0.19444010    -0.77600
C62         C  0.98023295  0.20756085  0.19910723     1.03000
Cr63       Cr  0.03394312  0.20461643  0.15033218     1.93700
Cr64       Cr  0.12743881  0.26489477  0.16231975     1.93200
Cr65       Cr  0.02386256  0.30425812  0.17987915     1.39100
O66         O  0.06196199  0.25797419  0.16453152    -1.22700
O67         O  0.70382863  0.50825592  0.88892832    -0.84900
O68         O  0.69272092  0.42044026  0.86112758    -0.82000
C69         C  0.69568489  0.37464274  0.85528486     0.98500
O70         O  0.69954772  0.34176938  0.87346529    -0.82000
O71         O  0.79473305  0.35122491  0.89019092    -0.84700
C72         C  0.83342142  0.37316403  0.89802172     1.03000
O73         O  0.83003362  0.40747579  0.91556981    -0.77400
O74         O  0.78234837  0.48816439  0.89290539    -0.77600
C75         C  0.74872906  0.51422499  0.88190455     1.03000
O76         O  0.64875263  0.46625036  0.93196392    -0.84900
O77         O  0.62606706  0.38275386  0.90060332    -0.82000
C78         C  0.62776978  0.34588918  0.91644578     0.98500
O79         O  0.66773571  0.33739876  0.92893524    -0.82000
O80         O  0.76689483  0.33989436  0.94490293    -0.84600
C81         C  0.77296142  0.36961090  0.96438087     1.03000
O82         O  0.76527701  0.41608283  0.96157924    -0.77500
O83         O  0.72087588  0.50188772  0.94094904    -0.77600
C84         C  0.67381092  0.49851419  0.94453109     1.03000
Cr85       Cr  0.67167870  0.44223685  0.89693068     1.93700
Cr86       Cr  0.73151072  0.34760372  0.90973808     1.93200
Cr87       Cr  0.77111253  0.45088404  0.92667314     1.39100
O88         O  0.72495895  0.41339117  0.91143771    -1.22700
O89         O  0.20484860  0.99615327  0.88831469    -0.84900
O90         O  0.19135970  0.08772006  0.91314894    -0.82000
C91         C  0.19483687  0.13407308  0.91796586     0.96100
O92         O  0.20323928  0.16435786  0.89896353    -0.82000
O93         O  0.29858051  0.14802297  0.88330836    -0.84700
C94         C  0.33684145  0.12485269  0.87539156     1.03000
O95         O  0.33318280  0.08949416  0.85851730    -0.77400
O96         O  0.28387518  0.01195500  0.88322756    -0.77600
C97         C  0.24985502  0.98845772  0.89514569     1.03000
O98         O  0.15186554  0.03511164  0.84234464    -0.84900
O99         O  0.12937831  0.12193526  0.87133931    -0.82000
C100        C  0.13245672  0.15862543  0.85553385     0.98500
O101        O  0.17299037  0.16615438  0.84341813    -0.82000
O102        O  0.27271973  0.15577487  0.82742502    -0.84600
C103        C  0.27794365  0.12364002  0.80878294     1.03000
O104        O  0.26802768  0.07828452  0.81306908    -0.77500
O105        O  0.22340104  0.99610699  0.83526143    -0.77600
C106        C  0.17748205  0.00299160  0.82958255     1.03000
Cr107      Cr  0.17343154  0.06190363  0.87742405     1.93700
Cr108      Cr  0.23618117  0.15333797  0.86300761     1.93200
Cr109      Cr  0.27354400  0.04689644  0.84870378     1.39100
O110        O  0.22783765  0.08758191  0.86289115    -1.22700
O111        O  0.48533039  0.27796289  0.63871652    -0.84900
O112        O  0.57798739  0.29013051  0.66066380    -0.82000
C113        C  0.62431818  0.28664402  0.66469438     0.98500
O114        O  0.65415834  0.27533018  0.64592786    -0.82000
O115        O  0.63474150  0.17880470  0.63290895    -0.84700
C116        C  0.61124830  0.14071183  0.62554945     1.03000
O117        O  0.57560306  0.14429610  0.60897778    -0.77400
O118        O  0.49961185  0.19761573  0.63431572    -0.77600
C119        C  0.47696307  0.23328030  0.64585787     1.03000
O120        O  0.52231273  0.32638214  0.59087024    -0.84900
O121        O  0.61070629  0.34898158  0.61708540    -0.82000
C122        C  0.64715986  0.34287276  0.60120938     0.98500
O123        O  0.65417634  0.30087287  0.59021992    -0.82000
O124        O  0.64108322  0.20098611  0.57653937    -0.84600
C125        C  0.60841979  0.19610234  0.55834542     1.03000
O126        O  0.56307757  0.20661787  0.56287916    -0.77500
O127        O  0.48234772  0.25536100  0.58578479    -0.77600
C128        C  0.48906644  0.30089749  0.57947206     1.03000
Cr129      Cr  0.55071583  0.30659954  0.62550699     1.93700
Cr130      Cr  0.64069661  0.23969853  0.61123504     1.93200
Cr131      Cr  0.53322312  0.20462351  0.59906245     1.39100
O132        O  0.57506584  0.25029459  0.61168842    -1.22700
O133        O  0.76375177  0.99495569  0.38611734    -0.84900
O134        O  0.77671565  0.90304037  0.40986361    -0.82000
C135        C  0.77266378  0.85682700  0.41444887     0.98500
O136        O  0.76745138  0.82577762  0.39540935    -0.82000
O137        O  0.67054191  0.83882885  0.38137887    -0.84700
C138        C  0.63162568  0.86307040  0.37550160     1.03000
O139        O  0.63335120  0.90072722  0.36019344    -0.77400
O140        O  0.68468205  0.97732908  0.38350913    -0.77600
C141        C  0.71934724  0.00203748  0.39400713     1.03000
O142        O  0.81341402  0.95617547  0.33930369    -0.84900
O143        O  0.83885160  0.86998192  0.36710586    -0.82000
C144        C  0.83603436  0.83486027  0.35021483     0.98500
O145        O  0.79471664  0.82580811  0.33922762    -0.82000
O146        O  0.69407579  0.83405479  0.32559593    -0.84600
C147        C  0.68464943  0.86705393  0.30812637     1.03000
O148        O  0.69200227  0.91282353  0.31263078    -0.77500
O149        O  0.74055683  0.99387913  0.33371331    -0.77600
C150        C  0.78655498  0.98835018  0.32752173     1.03000
Cr151      Cr  0.79403832  0.92903187  0.37437007     1.93700
Cr152      Cr  0.73239756  0.83649823  0.36019164     1.93200
Cr153      Cr  0.69149433  0.94326987  0.34851229     1.39100
O154        O  0.73908864  0.90265538  0.36065945    -1.22700
O155        O  0.48954066  0.73384407  0.13190074    -0.84900
O156        O  0.40771418  0.71927741  0.16379459    -0.82000
C157        C  0.36331226  0.72214835  0.17201156     0.98500
O158        O  0.32719646  0.72681362  0.15561941    -0.82000
O159        O  0.33156613  0.82284273  0.13898302    -0.84700
C160        C  0.34993758  0.86216281  0.12958541     1.03000
O161        O  0.38244359  0.85942166  0.11111601    -0.77400
O162        O  0.46695050  0.81203564  0.13075710    -0.77600
C163        C  0.49487772  0.77819291  0.14019417     1.03000
O164        O  0.44081428  0.67961634  0.09046069    -0.84900
O165        O  0.36398854  0.65362404  0.12535833    -0.82000
C166        C  0.32513195  0.65570589  0.11092116     0.98500
O167        O  0.31411596  0.69643680  0.09984414    -0.82000
O168        O  0.31277895  0.79494026  0.08434105    -0.84600
C169        C  0.33982164  0.80058068  0.06373597     1.03000
O170        O  0.38661648  0.79491204  0.06511007    -0.77500
O171        O  0.47453350  0.75214526  0.08121673    -0.77600
C172        C  0.46919906  0.70568012  0.07604524     1.03000
Cr173      Cr  0.42318018  0.70038020  0.12682670     1.93700
Cr174      Cr  0.32622871  0.75963224  0.11923044     1.93200
Cr175      Cr  0.42558697  0.80125721  0.09833270     1.39100
O176        O  0.39134736  0.75403392  0.11460428    -1.22700
C177        C  0.57828837  0.85233792  0.18788980    -0.05100
C178        C  0.58758424  0.81666733  0.20801638     0.09100
C179        C  0.57116763  0.76707891  0.20459612    -0.02400
C180        C  0.54345488  0.75353675  0.18175043    -0.00700
C181        C  0.53180191  0.78984273  0.16187846    -0.04300
C182        C  0.55150197  0.83882579  0.16466640     0.02700
C183        C  0.61335653  0.83127270  0.23338482     0.09500
C184        C  0.58120345  0.73035626  0.22529979     0.35400
C185        C  0.54526394  0.87532207  0.14348387     0.38900
C186        C  0.58528305  0.85155500  0.25476178    -0.04700
C187        C  0.60860878  0.86189226  0.27937246     0.02500
C188        C  0.66039073  0.85274107  0.28268032    -0.04300
C189        C  0.68849509  0.83229586  0.26136204    -0.00500
C190        C  0.66507063  0.82193147  0.23668396    -0.03100
C191        C  0.53234299  0.86216508  0.25142744     0.36200
C192        C  0.74133337  0.82167937  0.26486306     0.39800
C193        C  0.57878869  0.88082001  0.30151282     0.38900
C194        C  0.69407452  0.80203956  0.21452743     0.35800
C195        C  0.59520160  0.90340749  0.19149682     0.36500
C196        C  0.52489598  0.70270545  0.17983725     0.39800
N197        N  0.55430362  0.89554626  0.31897083    -0.38300
N198        N  0.49020326  0.87136413  0.24902924    -0.39900
N199        N  0.78344345  0.81270428  0.26761777    -0.37600
N200        N  0.71703872  0.78635844  0.19672144    -0.40000
N201        N  0.58924028  0.70123314  0.24186549    -0.39800
N202        N  0.51027471  0.66207731  0.17851363    -0.37400
N203        N  0.54066940  0.90438493  0.12652744    -0.38500
N204        N  0.60837182  0.94422683  0.19451525    -0.40100
C205        C  0.61491714  0.10732845  0.49844054    -0.05100
C206        C  0.65675448  0.12570209  0.48442183     0.09100
C207        C  0.68102453  0.16908448  0.49390316    -0.02400
C208        C  0.66439601  0.19315346  0.51757431    -0.00700
C209        C  0.62317781  0.17413737  0.53196402    -0.04300
C210        C  0.59799693  0.13152144  0.52195711     0.02700
C211        C  0.67603832  0.09809244  0.46018604     0.09500
C212        C  0.72344061  0.18866742  0.47933452     0.35400
C213        C  0.55648301  0.11048094  0.53673676     0.38900
C214        C  0.65000923  0.10080919  0.43569709    -0.04700
C215        C  0.66505730  0.07069231  0.41378954     0.02500
C216        C  0.70751028  0.03876791  0.41580627    -0.04300
C217        C  0.73577296  0.03907102  0.43975722    -0.00500
C218        C  0.71909396  0.06725310  0.46206577    -0.03100
C219        C  0.60716312  0.13418100  0.43321177     0.36200
C220        C  0.78093506  0.00885671  0.44209156     0.39800
C221        C  0.63700522  0.07307224  0.38901732     0.38900
C222        C  0.74481593  0.06257576  0.48746042     0.35800
C223        C  0.59030446  0.06230257  0.48909978     0.36500
C224        C  0.68912175  0.23813949  0.52681743     0.39800
N225        N  0.61463153  0.07480324  0.36925379    -0.38300
N226        N  0.57300229  0.16085445  0.43122841    -0.39900
N227        N  0.81726539  0.98527850  0.44420670    -0.37600
N228        N  0.76500925  0.05854296  0.50778985    -0.40000
N229        N  0.75739134  0.20409490  0.46770547    -0.39800
N230        N  0.70874996  0.27416173  0.53410366    -0.37400
N231        N  0.52353333  0.09357464  0.54859295    -0.38500
N232        N  0.57079718  0.02637982  0.48158521    -0.40100
C233        C  0.32415053  0.82278367  0.98899425    -0.05100
C234        C  0.28947836  0.86292376  0.98878138     0.09100
C235        C  0.26578855  0.87752067  0.01281379    -0.02400
C236        C  0.27958165  0.85488406  0.03725438    -0.00700
C237        C  0.31741664  0.81729717  0.03782610    -0.04300
C238        C  0.33754867  0.79956792  0.01331018     0.02700
C239        C  0.28073470  0.89238723  0.96364878     0.09500
C240        C  0.22843498  0.91727967  0.01247139     0.35400
C241        C  0.37159038  0.75687534  0.01296871     0.38900
C242        C  0.23877002  0.88327186  0.94741869    -0.04700
C243        C  0.22902537  0.91356884  0.92479354     0.02500
C244        C  0.26235504  0.95262267  0.91754968    -0.04300
C245        C  0.30634701  0.95917132  0.93319275    -0.00500
C246        C  0.31449656  0.93022789  0.95641221    -0.03100
C247        C  0.20554643  0.84251765  0.95416527     0.36200
C248        C  0.34302129  0.99671927  0.92630760     0.39800
C249        C  0.18469516  0.90366339  0.90901656     0.38900
C250        C  0.35706440  0.94043993  0.97354254     0.35800
C251        C  0.34707334  0.80632151  0.96417398     0.36500
C252        C  0.25624910  0.87222206  0.06181560     0.39800
N253        N  0.14906120  0.89564674  0.89665405    -0.38300
N254        N  0.17931996  0.80979034  0.95956762    -0.39900
N255        N  0.37300134  0.02600426  0.92088422    -0.37600
N256        N  0.39070329  0.94864448  0.98737411    -0.40000
N257        N  0.19850989  0.94888205  0.01219308    -0.39800
N258        N  0.23743461  0.88601801  0.08136057    -0.37400
N259        N  0.39845556  0.72262048  0.01262288    -0.38500
N260        N  0.36547457  0.79332011  0.94437421    -0.40100
C261        C  0.35980629  0.12383530  0.74563177    -0.05100
C262        C  0.34977737  0.17188907  0.73507083     0.09100
C263        C  0.31268006  0.20221069  0.74734877    -0.02400
C264        C  0.28739671  0.18557156  0.77054341    -0.00700
C265        C  0.29947407  0.13866728  0.78216839    -0.04300
C266        C  0.33467437  0.10709430  0.76881622     0.02700
C267        C  0.37938744  0.19093751  0.71149060     0.09500
C268        C  0.30068322  0.25084786  0.73608835     0.35400
C269        C  0.34679850  0.05779897  0.77928096     0.38900
C270        C  0.37141505  0.17159663  0.68553239    -0.04700
C271        C  0.40205572  0.18668864  0.66392673     0.02500
C272        C  0.44039756  0.22223301  0.66783443    -0.04300
C273        C  0.44545999  0.24454977  0.69340555    -0.00500
C274        C  0.41628958  0.22787089  0.71520927    -0.03100
C275        C  0.33156120  0.13603798  0.68110906     0.36200
C276        C  0.48059458  0.28473198  0.69768512     0.39800
C277        C  0.39271219  0.16714827  0.63735782     0.38900
C278        C  0.42532186  0.24773034  0.74178336     0.35800
C279        C  0.39727464  0.09197702  0.73299657     0.36500
C280        C  0.24704147  0.21580663  0.78153159     0.39800
N281        N  0.38498044  0.15197009  0.61609558    -0.38300
N282        N  0.29970178  0.10765674  0.67766863    -0.39900
N283        N  0.50736013  0.31765111  0.70185018    -0.37600
N284        N  0.43257959  0.26343319  0.76298806    -0.40000
N285        N  0.29140146  0.28976958  0.72714202    -0.39800
N286        N  0.21430219  0.23984190  0.78983004    -0.37400
N287        N  0.35641625  0.01839339  0.78752074    -0.38500
N288        N  0.42702421  0.06652969  0.72285036    -0.40100
C289        C  0.51232551  0.60577548  0.02591179    -0.05100
C290        C  0.55802477  0.62543947  0.01677928     0.09100
C291        C  0.57285656  0.67346070  0.02537001    -0.02400
C292        C  0.54401269  0.70027066  0.04439710    -0.00700
C293        C  0.49831699  0.68029533  0.05406151    -0.04300
C294        C  0.48162043  0.63386268  0.04340341     0.02700
C295        C  0.58990638  0.59576927  0.99763426     0.09500
C296        C  0.61811184  0.69524522  0.01456973     0.35400
C297        C  0.43190397  0.61533810  0.04936328     0.38900
C298        C  0.57320177  0.58740160  0.97126731    -0.04700
C299        C  0.60128631  0.55667841  0.95377405     0.02500
C300        C  0.64683886  0.53443487  0.96236858    -0.04300
C301        C  0.66531050  0.54583914  0.98811226    -0.00500
C302        C  0.63638880  0.57539494  0.00588040    -0.03100
C303        C  0.52679216  0.61030992  0.96217771     0.36200
C304        C  0.71377559  0.52685279  0.99654754     0.39800
C305        C  0.58402796  0.54962986  0.92652917     0.38900
C306        C  0.65401514  0.58396656  0.03289369     0.35800
C307        C  0.49699794  0.55608816  0.01749317     0.36500
C308        C  0.56253259  0.74785131  0.05416536     0.39800
N309        N  0.57034489  0.54421872  0.90479073    -0.38300
N310        N  0.48959986  0.62833002  0.95505775    -0.39900
N311        N  0.75270129  0.51228938  0.00323384    -0.37600
N312        N  0.66819322  0.59096926  0.05440595    -0.40000
N313        N  0.65425226  0.71242172  0.00591834    -0.39800
N314        N  0.57758576  0.78579578  0.06183587    -0.37400
N315        N  0.39212543  0.60073092  0.05382853    -0.38500
N316        N  0.48470977  0.51652551  0.01078690    -0.40100
C317        C  0.71597081  0.36797508  0.78026052    -0.05100
C318        C  0.68124137  0.33086983  0.77306483     0.09100
C319        C  0.65232408  0.30720658  0.79282991    -0.02400
C320        C  0.65766195  0.32115088  0.81976472    -0.00700
C321        C  0.69155765  0.35912381  0.82702049    -0.04300
C322        C  0.72049915  0.38282619  0.80712833     0.02700
C323        C  0.67083030  0.32083384  0.74440554     0.09500
C324        C  0.61567746  0.26992085  0.78527888     0.35400
C325        C  0.75595762  0.42151848  0.81425434     0.38900
C326        C  0.68844414  0.27651023  0.73203319    -0.04700
C327        C  0.67433749  0.26544580  0.70557020     0.02500
C328        C  0.64357539  0.29940362  0.69138240    -0.04300
C329        C  0.62894770  0.34534936  0.70326028    -0.00500
C330        C  0.64150684  0.35545097  0.72991832    -0.03100
C331        C  0.72056182  0.24221522  0.74667598     0.36200
C332        C  0.60162795  0.38272873  0.68792183     0.39800
C333        C  0.69000170  0.21847382  0.69338364     0.38900
C334        C  0.62332869  0.40101242  0.74271426     0.35800
C335        C  0.74641656  0.39130296  0.75983724     0.36500
C336        C  0.62598073  0.29873947  0.83985697     0.39800
N337        N  0.70268276  0.18094993  0.68378194    -0.38300
N338        N  0.74631432  0.21491818  0.75833249    -0.39900
N339        N  0.57989380  0.41255247  0.67571701    -0.37600
N340        N  0.60893673  0.43722829  0.75303966    -0.40000
N341        N  0.58645882  0.24024273  0.77920664    -0.39800
N342        N  0.60100092  0.28156833  0.85624324    -0.37400
N343        N  0.78465423  0.45206046  0.81977233    -0.38500
N344        N  0.77055365  0.40980788  0.74346356    -0.40100
C345        C  0.43532644  0.18314142  0.92026622    -0.05100
C346        C  0.47048829  0.19910614  0.90119013     0.09100
C347        C  0.46595055  0.18296497  0.87442609    -0.02400
C348        C  0.42399538  0.15512992  0.86624786    -0.00700
C349        C  0.38628057  0.14296579  0.88486367    -0.04300
C350        C  0.39309158  0.15560633  0.91214346     0.02700
C351        C  0.50921749  0.23700090  0.90857913     0.09500
C352        C  0.50361313  0.19618932  0.85491923     0.35400
C353        C  0.35600154  0.14142476  0.93184345     0.38900
C354        C  0.55643330  0.22181385  0.91811570    -0.04700
C355        C  0.59444864  0.25748942  0.92233564     0.02500
C356        C  0.58524538  0.30932688  0.91732578    -0.04300
C357        C  0.53624714  0.32448003  0.90960119    -0.00500
C358        C  0.49872323  0.28845106  0.90517183    -0.03100
C359        C  0.56616845  0.16905005  0.92295112     0.36200
C360        C  0.52412503  0.37706184  0.90563359     0.39800
C361        C  0.64374212  0.23963998  0.93013016     0.38900
C362        C  0.44917455  0.30414627  0.89654907     0.35800
C363        C  0.44212146  0.19614519  0.94816516     0.36500
C364        C  0.41801941  0.14287957  0.83819300     0.39800
N365        N  0.68305764  0.22521542  0.93623960    -0.38300
N366        N  0.57384773  0.12698651  0.92692738    -0.39900
N367        N  0.51429615  0.41889633  0.90226086    -0.37600
N368        N  0.40957933  0.31638402  0.88969735    -0.40000
N369        N  0.53297776  0.20557706  0.83875567    -0.39800
N370        N  0.41388480  0.13366008  0.81571775    -0.37400
N371        N  0.32647372  0.13012295  0.94758133    -0.38500
N372        N  0.44779028  0.20615924  0.97045743    -0.40100
C373        C  0.97080531  0.33146699  0.89523377    -0.05100
C374        C  0.97153238  0.30382796  0.87114082     0.09100
C375        C  0.93038789  0.30690449  0.85376428    -0.02400
C376        C  0.88588059  0.33088071  0.86203483    -0.00700
C377        C  0.88307795  0.35550054  0.88729645    -0.04300
C378        C  0.92721599  0.35826704  0.90301924     0.02700
C379        C  0.01275508  0.26698271  0.86511677     0.09500
C380        C  0.93347376  0.28343767  0.82757297     0.35400
C381        C  0.92747689  0.38588692  0.92803066     0.38900
C382        C  0.00301155  0.21511822  0.86653624    -0.04700
C383        C  0.04082064  0.17981211  0.86034842     0.02500
C384        C  0.09011394  0.19575781  0.85458075    -0.04300
C385        C  0.09932420  0.24801952  0.85243816    -0.00500
C386        C  0.06037859  0.28322488  0.85701163    -0.03100
C387        C  0.95402152  0.19798864  0.87491684     0.36200
C388        C  0.14939023  0.26643391  0.84762110     0.39800
C389        C  0.02856458  0.12690847  0.85987333     0.38900
C390        C  0.06935633  0.33639067  0.85373125     0.35800
C391        C  0.01436258  0.33099821  0.91248587     0.36500
C392        C  0.84271104  0.32718916  0.84466381     0.39800
N393        N  0.01865657  0.08478287  0.85941315    -0.38300
N394        N  0.91493345  0.18450803  0.88159790    -0.39900
N395        N  0.18927445  0.28175513  0.84428562    -0.37600
N396        N  0.07630852  0.37883049  0.85110279    -0.40000
N397        N  0.93613140  0.26482375  0.80670771    -0.39800
N398        N  0.80886530  0.32200381  0.83059137    -0.37400
N399        N  0.92782331  0.40793032  0.94797858    -0.38500
N400        N  0.04911213  0.33116518  0.92625488    -0.40100
C401        C  0.94469597  0.12173492  0.25662390    -0.05100
C402        C  0.89221985  0.11888753  0.25352238     0.09100
C403        C  0.86850783  0.14812841  0.23363499    -0.02400
C404        C  0.89687020  0.18021047  0.21719507    -0.00700
C405        C  0.94954145  0.18111945  0.21941867    -0.04300
C406        C  0.97326934  0.15215836  0.23944361     0.02700
C407        C  0.86209048  0.08524657  0.27136268     0.09500
C408        C  0.81511273  0.14352375  0.22932913     0.35400
C409        C  0.02718561  0.15433144  0.24266697     0.38900
C410        C  0.83158596  0.10589258  0.29175103    -0.04700
C411        C  0.80540232  0.07430128  0.30944602     0.02500
C412        C  0.81020554  0.02162343  0.30727629    -0.04300
C413        C  0.84006045  0.00097077  0.28653577    -0.00500
C414        C  0.86529975  0.03262009  0.26848516    -0.03100
C415        C  0.82826280  0.15983514  0.29498758     0.36200
C416        C  0.84467812  0.94703225  0.28358129     0.39800
C417        C  0.77552134  0.09616874  0.33076919     0.38900
C418        C  0.89482870  0.01106512  0.24692178     0.35800
C419        C  0.96937568  0.09275664  0.27733985     0.36500
C420        C  0.87189184  0.21126953  0.19748557     0.39800
N421        N  0.75166430  0.11342138  0.34782683    -0.38300
N422        N  0.82557102  0.20289438  0.29749097    -0.39900
N423        N  0.84873426  0.90404376  0.28122414    -0.37600
N424        N  0.91847495  0.99398653  0.22973083    -0.40000
N425        N  0.77256174  0.13951529  0.22576318    -0.39800
N426        N  0.85197462  0.23654260  0.18196909    -0.37400
N427        N  0.07016326  0.15618423  0.24524983    -0.38500
N428        N  0.98895517  0.06936149  0.29378517    -0.40100
C429        C  0.79546979  0.35317281  0.03931516    -0.05100
C430        C  0.83958974  0.32366205  0.03940194     0.09100
C431        C  0.85832792  0.30453780  0.01502865    -0.02400
C432        C  0.83506617  0.31740715  0.99061493    -0.00700
C433        C  0.79289885  0.35007135  0.99030734    -0.04300
C434        C  0.77197784  0.36597780  0.01491262     0.02700
C435        C  0.86769525  0.31431447  0.06499022     0.09500
C436        C  0.90229584  0.27223622  0.01508797     0.35400
C437        C  0.72485097  0.39330578  0.01520457     0.38900
C438        C  0.86222837  0.26896245  0.07895763    -0.04700
C439        C  0.89075583  0.25923511  0.10224470     0.02500
C440        C  0.92622350  0.29472289  0.11174842    -0.04300
C441        C  0.93019568  0.34108939  0.09782123    -0.00500
C442        C  0.90125729  0.35046262  0.07467712    -0.03100
C443        C  0.82765191  0.23175830  0.06893112     0.36200
C444        C  0.96482462  0.37940794  0.10650553     0.39800
C445        C  0.88271739  0.21246118  0.11624030     0.38900
C446        C  0.90705510  0.39708928  0.06016829     0.35800
C447        C  0.77435527  0.37037250  0.06442971     0.36500
C448        C  0.85550515  0.29762482  0.96584063     0.39800
N449        N  0.87602716  0.17500388  0.12722492    -0.38300
N450        N  0.80025516  0.20205352  0.06079592    -0.39900
N451        N  0.99210383  0.41036574  0.11331641    -0.37600
N452        N  0.91163776  0.43415394  0.04851501    -0.40000
N453        N  0.93723479  0.24630489  0.01517558    -0.39800
N454        N  0.87163663  0.28120951  0.94618664    -0.37400
N455        N  0.68680532  0.41435118  0.01550316    -0.38500
N456        N  0.75752202  0.38398237  0.08450867    -0.40100
C457        C  0.17102436  0.48831869  0.15277493    -0.05100
C458        C  0.18402923  0.49379921  0.12562309     0.09100
C459        C  0.16299803  0.46149215  0.10641704    -0.02400
C460        C  0.13142111  0.42216820  0.11453375    -0.00700
C461        C  0.12093867  0.41469623  0.14199213    -0.04300
C462        C  0.13947260  0.44916850  0.16091903     0.02700
C463        C  0.22049422  0.53333971  0.11756815     0.09500
C464        C  0.17525898  0.46777414  0.07841590     0.35400
C465        C  0.12934739  0.44271973  0.18912812     0.38900
C466        C  0.27238615  0.52360286  0.11862296    -0.04700
C467        C  0.30688629  0.56268311  0.11448189     0.02500
C468        C  0.28967754  0.61231282  0.10965215    -0.04300
C469        C  0.23729633  0.62069027  0.10636612    -0.00500
C470        C  0.20316853  0.58129103  0.11029208    -0.03100
C471        C  0.29013459  0.47326133  0.12439314     0.36200
C472        C  0.21746377  0.67009999  0.10015698     0.39800
C473        C  0.36006226  0.55133477  0.11496393     0.38900
C474        C  0.14978389  0.59025710  0.10752810     0.35800
C475        C  0.19183217  0.52152424  0.17275800     0.36500
C476        C  0.11015591  0.38895774  0.09461819     0.39800
N477        N  0.40245675  0.54211560  0.11523675    -0.38300
N478        N  0.30411446  0.43301488  0.12893784    -0.39900
N479        N  0.20139806  0.70937897  0.09513728    -0.37600
N480        N  0.10720962  0.59720798  0.10522481    -0.40000
N481        N  0.18513274  0.47277599  0.05607794    -0.39800
N482        N  0.09305340  0.36257525  0.07873479    -0.37400
N483        N  0.12203134  0.43871204  0.21177740    -0.38500
N484        N  0.20777013  0.54689291  0.18940795    -0.40100
C485        C  0.25299453  0.08626389  0.16637236    -0.05100
C486        C  0.23476494  0.03750652  0.16212787     0.09100
C487        C  0.18289498  0.02858096  0.16417880    -0.02400
C488        C  0.14928270  0.06861282  0.16918952    -0.00700
C489        C  0.16702413  0.11831924  0.17114474    -0.04300
C490        C  0.21939939  0.12672338  0.17030664     0.02700
C491        C  0.27004881  0.99568335  0.15473464     0.09500
C492        C  0.16394100  0.97829478  0.16033118     0.35400
C493        C  0.23908853  0.17718330  0.17144971     0.38900
C494        C  0.28196777  0.95828523  0.17347558    -0.04700
C495        C  0.31091767  0.91621145  0.16579405     0.02500
C496        C  0.32924632  0.91141770  0.13922353    -0.04300
C497        C  0.32087152  0.95148987  0.12115876    -0.00500
C498        C  0.29052209  0.99281375  0.12875379    -0.03100
C499        C  0.26322019  0.96261766  0.20062526     0.36200
C500        C  0.34109362  0.94954161  0.09426887     0.39800
C501        C  0.32073940  0.87768611  0.18549204     0.38900
C502        C  0.27849472  0.03153414  0.10944610     0.35800
C503        C  0.30653012  0.09484159  0.16601802     0.36500
C504        C  0.09630046  0.05855173  0.17223115     0.39800
N505        N  0.32726345  0.84743477  0.20163219    -0.38300
N506        N  0.24812795  0.96602499  0.22223176    -0.39900
N507        N  0.35723846  0.94829540  0.07281465    -0.37600
N508        N  0.26876482  0.06247197  0.09410786    -0.40000
N509        N  0.14885333  0.93816782  0.15728646    -0.39800
N510        N  0.05405035  0.05063839  0.17473771    -0.37400
N511        N  0.25505728  0.21733931  0.17213244    -0.38500
N512        N  0.34925278  0.10149438  0.16574863    -0.40100
C513        C  0.10024710  0.17969572  0.03574888    -0.05100
C514        C  0.14492424  0.20026873  0.02593264     0.09100
C515        C  0.17351575  0.23202484  0.04234307    -0.02400
C516        C  0.15855423  0.24161178  0.06894877    -0.00700
C517        C  0.11503127  0.21881292  0.07945679    -0.04300
C518        C  0.08540315  0.18845658  0.06235882     0.02700
C519        C  0.16259739  0.18609663  0.99856839     0.09500
C520        C  0.21853927  0.25458624  0.03180659     0.35400
C521        C  0.04031831  0.16450687  0.07203141     0.38900
C522        C  0.15280584  0.21753474  0.97665735    -0.04700
C523        C  0.16539176  0.20182307  0.95050482     0.02500
C524        C  0.18628725  0.15326767  0.94589568    -0.04300
C525        C  0.19665953  0.12231286  0.96832892    -0.00500
C526        C  0.18553294  0.13904251  0.99442416    -0.03100
C527        C  0.12775730  0.26536461  0.98104635     0.36200
C528        C  0.21847463  0.07276949  0.96506788     0.39800
C529        C  0.15477074  0.23554739  0.92856296     0.38900
C530        C  0.19648125  0.10719325  0.01720365     0.35800
C531        C  0.06976374  0.14882606  0.01834244     0.36500
C532        C  0.18747076  0.27605556  0.08511765     0.39800
N533        N  0.14642986  0.26327804  0.91138245    -0.38300
N534        N  0.10751644  0.30329514  0.98464861    -0.39900
N535        N  0.23531060  0.03288674  0.96310568    -0.37600
N536        N  0.20507400  0.08186203  0.03538852    -0.40000
N537        N  0.25436875  0.27274365  0.02336613    -0.39800
N538        N  0.21049008  0.30369732  0.09792491    -0.37400
N539        N  0.00423376  0.14547222  0.07957780    -0.38500
N540        N  0.04559980  0.12429487  0.00439062    -0.40100
C541        C  0.35014760  0.45827185  0.51031142    -0.05100
C542        C  0.36578989  0.40941463  0.50314618     0.09100
C543        C  0.35369732  0.39020024  0.47765539    -0.02400
C544        C  0.32717583  0.42022886  0.45916939    -0.00700
C545        C  0.31287445  0.46962379  0.46611372    -0.04300
C546        C  0.32372345  0.48824165  0.49186582     0.02700
C547        C  0.39710197  0.37920122  0.52207829     0.09500
C548        C  0.36983812  0.34001491  0.47028120     0.35400
C549        C  0.30790906  0.53851693  0.49930867     0.38900
C550        C  0.37450973  0.35243454  0.54308529    -0.04700
C551        C  0.40435543  0.32552268  0.56148627     0.02500
C552        C  0.45705394  0.32548986  0.55902197    -0.04300
C553        C  0.47953795  0.35181104  0.53773552    -0.00500
C554        C  0.44967630  0.37889264  0.51949384    -0.03100
C555        C  0.32057353  0.35399670  0.54618647     0.36200
C556        C  0.53349151  0.35035512  0.53432740     0.39800
C557        C  0.38090576  0.29986640  0.58365152     0.38900
C558        C  0.47306373  0.40777004  0.49846956     0.35800
C559        C  0.36259974  0.47817856  0.53643992     0.36500
C560        C  0.31641704  0.40111739  0.43265513     0.39800
N561        N  0.36221796  0.27950785  0.60137810    -0.38300
N562        N  0.27754880  0.35566334  0.54870996    -0.39900
N563        N  0.57649808  0.34895099  0.53163795    -0.37600
N564        N  0.49162486  0.43108362  0.48178185    -0.40000
N565        N  0.38298346  0.30001290  0.46445579    -0.39800
N566        N  0.30789959  0.38592680  0.41147924    -0.37400
N567        N  0.29519593  0.57857238  0.50526735    -0.38500
N568        N  0.37262586  0.49400501  0.55728468    -0.40100
C569        C  0.21541008  0.44332245  0.30822314    -0.05100
C570        C  0.18290370  0.40310075  0.31344651     0.09100
C571        C  0.16989020  0.39215317  0.34011471    -0.02400
C572        C  0.18770367  0.42236517  0.36128274    -0.00700
C573        C  0.21811226  0.46428406  0.35597478    -0.04300
C574        C  0.23302186  0.47373357  0.32935017     0.02700
C575        C  0.16061897  0.37414036  0.29057954     0.09500
C576        C  0.13732884  0.35032204  0.34567260     0.35400
C577        C  0.26500759  0.51566222  0.32322209     0.38900
C578        C  0.18791059  0.33520555  0.27800097    -0.04700
C579        C  0.16956653  0.31243202  0.25439838     0.02500
C580        C  0.12279499  0.32735824  0.24355895    -0.04300
C581        C  0.09388066  0.36399099  0.25751065    -0.00500
C582        C  0.11311867  0.38767674  0.28056933    -0.03100
C583        C  0.23471962  0.31833256  0.28966419     0.36200
C584        C  0.04528306  0.37971147  0.24747932     0.39800
C585        C  0.19843739  0.27271081  0.24176982     0.38900
C586        C  0.08445614  0.42704166  0.29375499     0.35800
C587        C  0.22940726  0.45437714  0.28086002     0.36500
C588        C  0.17537418  0.40995080  0.38867760     0.39800
N589        N  0.22169156  0.24090972  0.23189426    -0.38300
N590        N  0.27177196  0.30471428  0.29926598    -0.39900
N591        N  0.00658160  0.39237159  0.23947854    -0.37600
N592        N  0.06165760  0.45841727  0.30430858    -0.40000
N593        N  0.11119774  0.31700211  0.35007301    -0.39800
N594        N  0.16606579  0.39998611  0.41059567    -0.37400
N595        N  0.29061714  0.54851779  0.31729473    -0.38500
N596        N  0.24048900  0.46310897  0.25902364    -0.40100
C597        C  0.02138067  0.71508533  0.39654985    -0.05100
C598        C  0.00682141  0.70877937  0.36962103     0.09100
C599        C  0.03393857  0.67524325  0.35307170    -0.02400
C600        C  0.07590627  0.64897158  0.36323783    -0.00700
C601        C  0.09102948  0.65624614  0.38995997    -0.04300
C602        C  0.06348706  0.68919139  0.40661991     0.02700
C603        C  0.96422946  0.73938937  0.35864170     0.09500
C604        C  0.01969418  0.66928528  0.32533000     0.35400
C605        C  0.08006131  0.69900052  0.43371904     0.38900
C606        C  0.97071459  0.79093332  0.35360379    -0.04700
C607        C  0.92904053  0.82166563  0.34756695     0.02500
C608        C  0.88044581  0.80114970  0.34663712    -0.04300
C609        C  0.87513709  0.74843202  0.34810992    -0.00500
C610        C  0.91676235  0.71783080  0.35471768    -0.03100
C611        C  0.02012029  0.81264724  0.35577302     0.36200
C612        C  0.82657705  0.72566736  0.34435760     0.39800
C613        C  0.93605790  0.87465035  0.34250904     0.38900
C614        C  0.91020120  0.66460649  0.35915137     0.35800
C615        C  0.99414086  0.74975297  0.41372171     0.36500
C616        C  0.10434145  0.61530303  0.34608573     0.39800
N617        N  0.94160627  0.91686445  0.33831244    -0.38300
N618        N  0.05957625  0.82981572  0.35763908    -0.39900
N619        N  0.78799154  0.70730192  0.34107602    -0.37600
N620        N  0.90507646  0.62215000  0.36277618    -0.40000
N621        N  0.00819358  0.66468656  0.30318638    -0.39800
N622        N  0.12713267  0.58838406  0.33248201    -0.37400
N623        N  0.09278624  0.70791908  0.45528804    -0.38500
N624        N  0.97304443  0.77765169  0.42753447    -0.40100
C625        C  0.51691977  0.84255150  0.41914164    -0.05100
C626        C  0.50105606  0.79519308  0.40978440     0.09100
C627        C  0.52485131  0.77355772  0.38725998    -0.02400
C628        C  0.56630815  0.79704693  0.37548216    -0.00700
C629        C  0.58325751  0.84349906  0.38535235    -0.04300
C630        C  0.55712351  0.86725902  0.40645290     0.02700
C631        C  0.45837246  0.76787043  0.42258363     0.09500
C632        C  0.50651054  0.72690029  0.37612375     0.35400
C633        C  0.57155197  0.91698282  0.41505056     0.38900
C634        C  0.40863018  0.78360210  0.41785535    -0.04700
C635        C  0.36852128  0.75141960  0.42380447     0.02500
C636        C  0.37810824  0.70224414  0.43324145    -0.04300
C637        C  0.42735931  0.68842543  0.44033234    -0.00500
C638        C  0.46724739  0.72168406  0.43564178    -0.03100
C639        C  0.39889513  0.83125929  0.40489911     0.36200
C640        C  0.43700795  0.63935292  0.45166424     0.39800
C641        C  0.31770504  0.76764794  0.41801204     0.38900
C642        C  0.51790275  0.70735746  0.44285000     0.35800
C643        C  0.49262239  0.86528611  0.44211533     0.36500
C644        C  0.59148951  0.77336397  0.35298647     0.39800
N645        N  0.27723164  0.78079264  0.41344080    -0.38300
N646        N  0.39117732  0.86926204  0.39454497    -0.39900
N647        N  0.44451267  0.60014801  0.46071638    -0.37600
N648        N  0.55836167  0.69605662  0.44862734    -0.40000
N649        N  0.49174674  0.68972169  0.36731476    -0.39800
N650        N  0.61137761  0.75432686  0.33504579    -0.37400
N651        N  0.58231286  0.95707487  0.42163390    -0.38500
N652        N  0.47322295  0.88347641  0.46045128    -0.40100
C653        C  0.28911259  0.71811707  0.29851918    -0.05100
C654        C  0.33041659  0.69560041  0.28550310     0.09100
C655        C  0.36263237  0.66322565  0.29970041    -0.02400
C656        C  0.35154441  0.65063390  0.32629575    -0.00700
C657        C  0.30710467  0.66888200  0.33844385    -0.04300
C658        C  0.27704881  0.70439799  0.32489727     0.02700
C659        C  0.33827490  0.70358308  0.25636223     0.09500
C660        C  0.40643107  0.64184032  0.28667258     0.35400
C661        C  0.23246460  0.72498104  0.33747753     0.38900
C662        C  0.37464750  0.73749233  0.24738330    -0.04700
C663        C  0.38247985  0.74409146  0.21979580     0.02500
C664        C  0.35369018  0.71694496  0.20104431    -0.04300
C665        C  0.31731098  0.68300168  0.21016251    -0.00500
C666        C  0.30962744  0.67630088  0.23773976    -0.03100
C667        C  0.40380177  0.76560440  0.26663282     0.36200
C668        C  0.28933152  0.65353133  0.19106204     0.39800
C669        C  0.41845015  0.78068504  0.21077780     0.38900
C670        C  0.27286000  0.64064733  0.24704143     0.35800
C671        C  0.25866322  0.75473871  0.28447633     0.36500
C672        C  0.38592691  0.61881452  0.34115532     0.39800
N673        N  0.44622144  0.81075688  0.20357145    -0.38300
N674        N  0.42698402  0.78777711  0.28211612    -0.39900
N675        N  0.26772390  0.63077810  0.17520160    -0.37600
N676        N  0.24356481  0.61226864  0.25454035    -0.40000
N677        N  0.44139998  0.62486643  0.27628661    -0.39800
N678        N  0.41332796  0.59355540  0.35304991    -0.37400
N679        N  0.19688810  0.74148713  0.34748078    -0.38500
N680        N  0.23469517  0.78416904  0.27322134    -0.40100
C681        C  0.08945095  0.85463549  0.73049394    -0.05100
C682        C  0.06729219  0.88490791  0.75062745     0.09100
C683        C  0.01452630  0.88602906  0.75296784    -0.02400
C684        C  0.98435809  0.85839154  0.73507607    -0.00700
C685        C  0.00648617  0.82830897  0.71485375    -0.04300
C686        C  0.05929862  0.82603182  0.71295981     0.02700
C687        C  0.09914735  0.91522135  0.76963888     0.09500
C688        C  0.99119539  0.91526220  0.77412436     0.35400
C689        C  0.08272293  0.79538084  0.69241117     0.38900
C690        C  0.09874972  0.96822086  0.76853196    -0.04700
C691        C  0.12466295  0.99670285  0.78791905     0.02500
C692        C  0.15293863  0.97262015  0.80813222    -0.04300
C693        C  0.15642285  0.91967595  0.80800726    -0.00500
C694        C  0.12855898  0.89118880  0.78939169    -0.03100
C695        C  0.07175399  0.99353748  0.74730022     0.36200
C696        C  0.18800874  0.89425036  0.82731236     0.39800
C697        C  0.12350216  0.05104125  0.78655545     0.38900
C698        C  0.12903936  0.83694854  0.79105206     0.35800
C699        C  0.14342699  0.85341751  0.72756562     0.36500
C700        C  0.93033273  0.85973572  0.73805394     0.39800
N701        N  0.12282061  0.09436851  0.78554519    -0.38300
N702        N  0.05027815  0.01380996  0.73035882    -0.39900
N703        N  0.21373883  0.87388238  0.84245187    -0.37600
N704        N  0.12937326  0.79365454  0.79229393    -0.40000
N705        N  0.97272307  0.93871491  0.79099295    -0.39800
N706        N  0.88725537  0.86066285  0.74042304    -0.37400
N707        N  0.10127253  0.77073459  0.67604902    -0.38500
N708        N  0.18651730  0.85221052  0.72532325    -0.40100
C709        C  0.78594677  0.76025741  0.53855651    -0.05100
C710        C  0.79963146  0.80503493  0.52561184     0.09100
C711        C  0.82613812  0.84207524  0.53983313    -0.02400
C712        C  0.83920018  0.83422960  0.56672670    -0.00700
C713        C  0.82778439  0.78839663  0.57930777    -0.04300
C714        C  0.80098652  0.75142910  0.56516450     0.02700
C715        C  0.78760253  0.81318816  0.49677088     0.09500
C716        C  0.84045087  0.88820147  0.52666618     0.35400
C717        C  0.79087044  0.70340730  0.57743171     0.38900
C718        C  0.75201325  0.84995535  0.48938931    -0.04700
C719        C  0.74610013  0.86307240  0.46235549     0.02500
C720        C  0.77539844  0.83914386  0.44244885    -0.04300
C721        C  0.80851996  0.79992654  0.44967696    -0.00500
C722        C  0.81469001  0.78708288  0.47678505    -0.03100
C723        C  0.72203905  0.87489391  0.50973302     0.36200
C724        C  0.83803528  0.77427253  0.42943452     0.39800
C725        C  0.70928888  0.90087067  0.45508359     0.38900
C726        C  0.84992120  0.74784849  0.48418073     0.35800
C727        C  0.75647503  0.72331596  0.52441799     0.36500
C728        C  0.86337491  0.87394561  0.58166288     0.39800
N729        N  0.67982288  0.93104547  0.44949388    -0.38300
N730        N  0.69822533  0.89494789  0.52592702    -0.39900
N731        N  0.86148874  0.75361062  0.41332086    -0.37600
N732        N  0.87763893  0.71621639  0.49007930    -0.40000
N733        N  0.85162579  0.92499607  0.51613768    -0.39800
N734        N  0.88240223  0.90567854  0.59362893    -0.37400
N735        N  0.78290403  0.66473966  0.58684759    -0.38500
N736        N  0.73290333  0.69394139  0.51309244    -0.40100
C737        C  0.65327033  0.03758501  0.67269175    -0.05100
C738        C  0.68256163  0.00757978  0.65536736     0.09100
C739        C  0.68296997  0.01790346  0.62773834    -0.02400
C740        C  0.65687991  0.05988596  0.61768538    -0.00700
C741        C  0.62931619  0.09132475  0.63513354    -0.04300
C742        C  0.62646940  0.07929102  0.66256610     0.02700
C743        C  0.71487772  0.96597165  0.66584070     0.09500
C744        C  0.71170992  0.98602305  0.60973432     0.35400
C745        C  0.59642674  0.11029048  0.68035576     0.38900
C746        C  0.69633561  0.91680207  0.66701611    -0.04700
C747        C  0.72940363  0.87599213  0.67114166     0.02500
C748        C  0.78162792  0.88421776  0.67341061    -0.04300
C749        C  0.79926397  0.93400151  0.67475276    -0.00500
C750        C  0.76587998  0.97471327  0.67118246    -0.03100
C751        C  0.64350594  0.90817740  0.66247690     0.36200
C752        C  0.85194336  0.94336134  0.67939357     0.39800
C753        C  0.70966972  0.82552554  0.67119653     0.38900
C754        C  0.78418660  0.02569870  0.67197042     0.35800
C755        C  0.65181297  0.02615780  0.70095435     0.36500
C756        C  0.66149848  0.07242302  0.58964518     0.39800
N757        N  0.69375156  0.78533444  0.67136178    -0.38300
N758        N  0.60134790  0.90150224  0.65878612    -0.39900
N759        N  0.89398328  0.95073977  0.68308990    -0.37600
N760        N  0.79859873  0.06644385  0.67271588    -0.40000
N761        N  0.73458073  0.96052507  0.59541717    -0.39800
N762        N  0.66625342  0.08178649  0.56725174    -0.37400
N763        N  0.57225827  0.13498839  0.69446711    -0.38500
N764        N  0.65072000  0.01693323  0.72351664    -0.40100
C765        C  0.77020851  0.41089614  0.61099639    -0.05100
C766        C  0.75391541  0.46129071  0.61079379     0.09100
C767        C  0.70449757  0.47272289  0.60263950    -0.02400
C768        C  0.67040391  0.43388030  0.59702245    -0.00700
C769        C  0.68549234  0.38317421  0.59928599    -0.04300
C770        C  0.73641192  0.37198294  0.60491961     0.02700
C771        C  0.78631733  0.50188511  0.62220818     0.09500
C772        C  0.68815463  0.52462748  0.60127784     0.35400
C773        C  0.75350060  0.32032060  0.60645492     0.38900
C774        C  0.82480957  0.52399894  0.60701057    -0.04700
C775        C  0.85079921  0.56601193  0.61713560     0.02500
C776        C  0.83813275  0.58626565  0.64237722    -0.04300
C777        C  0.80205553  0.56193506  0.65824955    -0.00500
C778        C  0.77679241  0.51958307  0.64834161    -0.03100
C779        C  0.83697056  0.50404427  0.58083538     0.36200
C780        C  0.78877074  0.58177475  0.68431622     0.39800
C781        C  0.89014022  0.58892353  0.60152357     0.38900
C782        C  0.74009243  0.49455535  0.66488924     0.35800
C783        C  0.82095273  0.39898843  0.61920998     0.36500
C784        C  0.61943850  0.44603937  0.58930444     0.39800
N785        N  0.92182604  0.60709761  0.58922868    -0.38300
N786        N  0.84688703  0.48783499  0.56000982    -0.39900
N787        N  0.77711328  0.59687543  0.70511246    -0.37600
N788        N  0.71095656  0.47440004  0.67806103    -0.40000
N789        N  0.67525461  0.56609340  0.60029953    -0.39800
N790        N  0.57879184  0.45562215  0.58305742    -0.37400
N791        N  0.76723835  0.27913177  0.60761345    -0.38500
N792        N  0.86141910  0.38963563  0.62586219    -0.40100
C793        C  0.08628614  0.65431602  0.58884752    -0.05100
C794        C  0.08888654  0.68396525  0.56564560     0.09100
C795        C  0.06253638  0.72990243  0.56466630    -0.02400
C796        C  0.03173126  0.74511111  0.58620726    -0.00700
C797        C  0.02707801  0.71439437  0.60917584    -0.04300
C798        C  0.05589472  0.66951703  0.61058700     0.02700
C799        C  0.11677132  0.66564419  0.54143693     0.09500
C800        C  0.06614577  0.76089769  0.54097449     0.35400
C801        C  0.05516012  0.63913042  0.63456764     0.38900
C802        C  0.09322549  0.63265111  0.52340422    -0.04700
C803        C  0.11753779  0.61815032  0.49953859     0.02500
C804        C  0.16535062  0.63720704  0.49330018    -0.04300
C805        C  0.18899797  0.67003973  0.51139298    -0.00500
C806        C  0.16503874  0.68369034  0.53555456    -0.03100
C807        C  0.04312080  0.61501807  0.52905027     0.36200
C808        C  0.23799646  0.68975130  0.50514157     0.39800
C809        C  0.09197227  0.58593039  0.48065194     0.38900
C810        C  0.18970887  0.71676035  0.55429512     0.35800
C811        C  0.11456887  0.60775065  0.59015374     0.36500
C812        C  0.00333889  0.79145002  0.58388071     0.39800
N813        N  0.07137511  0.56050393  0.46554607    -0.38300
N814        N  0.00310073  0.60118395  0.53359094    -0.39900
N815        N  0.27709072  0.70549369  0.50013270    -0.37600
N816        N  0.20939202  0.74310388  0.56929754    -0.40000
N817        N  0.06930385  0.78546669  0.52205146    -0.39800
N818        N  0.98109321  0.82861365  0.58172135    -0.37400
N819        N  0.05464839  0.61493100  0.65370984    -0.38500
N820        N  0.13711497  0.57058085  0.59117086    -0.40100
C821        C  0.84375062  0.60939859  0.77410909    -0.05100
C822        C  0.80903711  0.63457648  0.79077312     0.09100
C823        C  0.78904900  0.68139319  0.78274719    -0.02400
C824        C  0.80300141  0.70239624  0.75796981    -0.00700
C825        C  0.83851222  0.67761365  0.74162726    -0.04300
C826        C  0.85881092  0.63102663  0.74979597     0.02700
C827        C  0.79100247  0.60951606  0.81573716     0.09500
C828        C  0.75385173  0.70764216  0.79995605     0.35400
C829        C  0.89286708  0.60365509  0.73234419     0.38900
C830        C  0.82237358  0.60552955  0.83829398    -0.04700
C831        C  0.80803426  0.57594912  0.86034497     0.02500
C832        C  0.76154431  0.55066470  0.86024758    -0.04300
C833        C  0.72870411  0.55782648  0.83823017    -0.00500
C834        C  0.74384905  0.58630787  0.81598451    -0.03100
C835        C  0.86987878  0.63141696  0.83856494     0.36200
C836        C  0.68005438  0.53413260  0.83751876     0.39800
C837        C  0.84117858  0.57217723  0.88320071     0.38900
C838        C  0.71168304  0.59003517  0.79269970     0.35800
C839        C  0.86267608  0.56025628  0.78157391     0.36500
C840        C  0.78060300  0.74922339  0.74920048     0.39800
N841        N  0.86772346  0.56916877  0.90139285    -0.38300
N842        N  0.90774505  0.65211129  0.83875561    -0.39900
N843        N  0.64105910  0.51566681  0.83677696    -0.37600
N844        N  0.68621412  0.59311263  0.77408254    -0.40000
N845        N  0.72574784  0.72846163  0.81374678    -0.39800
N846        N  0.76241437  0.78638609  0.74210970    -0.37400
N847        N  0.91961226  0.58152474  0.71835857    -0.38500
N848        N  0.87768498  0.52103656  0.78751209    -0.40100
loop_ 
_geom_bond_atom_site_label_1 
_geom_bond_atom_site_label_2 
_geom_bond_distance 
_geom_bond_site_symmetry_2 
_ccdc_geom_bond_type 
O1          Cr19   2.019       .  S
O1            C9   1.267       .  A
O2          Cr19   1.967       .  S
O2            C3   1.260       .  A
C3            O4   1.268       .  A
C3          C713   1.481       .  S
O4          Cr20   2.018       .  S
O5          Cr20   1.969       .  S
O5            C6   1.255       .  A
C6            O7   1.268       .  A
C6          C776   1.486       .  S
O7          Cr21   2.030       .  S
O8          Cr21   1.979       .  S
O8            C9   1.259       .  A
C9          C797   1.500   1_655  S
O10         Cr19   1.976       .  S
O10          C18   1.261       .  A
O11         Cr19   2.011       .  S
O11          C12   1.266       .  A
C12          O13   1.258       .  A
C12         C748   1.492       .  S
O13         Cr20   1.977       .  S
O14         Cr20   2.016       .  S
O14          C15   1.269       .  A
C15          O16   1.260       .  A
C15         C825   1.483       .  S
O16         Cr21   1.970       .  S
O17         Cr21   2.037       .  S
O17          C18   1.274       .  A
C18         C685   1.499   1_655  S
Cr19         O22   1.771       .  S
Cr20         O22   1.771       .  S
Cr21         O22   1.772       .  S
O23         Cr41   2.029       .  S
O23          C31   1.269       .  A
O24         Cr41   1.954       .  S
O24          C25   1.258       .  A
C25          O26   1.267       .  A
C25         C657   1.480       .  S
O26         Cr42   2.018       .  S
O27         Cr42   1.966       .  S
O27          C28   1.254       .  A
C28          O29   1.266       .  A
C28         C601   1.480       .  S
O29         Cr43   2.023       .  S
O30         Cr43   1.977       .  S
O30          C31   1.260       .  A
C31         C573   1.493       .  S
O32         Cr41   1.966       .  S
O32          C40   1.258       .  A
O33         Cr41   2.016       .  S
O33          C34   1.266       .  A
C34          O35   1.257       .  A
C34         C636   1.487       .  S
O35         Cr42   1.973       .  S
O36         Cr42   2.018       .  S
O36          C37   1.269       .  A
C37          O38   1.260       .  A
C37         C804   1.486       .  S
O38         Cr43   1.972       .  S
O39         Cr43   2.026       .  S
O39          C40   1.269       .  A
C40         C545   1.480       .  S
Cr41         O44   1.771       .  S
Cr42         O44   1.773       .  S
Cr43         O44   1.776       .  S
O45         Cr63   2.011   1_655  S
O45          C53   1.264       .  A
O46         Cr63   1.963       .  S
O46          C47   1.258       .  A
C47          O48   1.272       .  A
C47         C517   1.495       .  S
O48         Cr64   2.029       .  S
O49         Cr64   1.954       .  S
O49          C50   1.253       .  A
C50          O51   1.271       .  A
C50         C461   1.487       .  S
O51         Cr65   2.033       .  S
O52         Cr65   1.988   1_655  S
O52          C53   1.260       .  A
C53         C440   1.516       .  S
O54         Cr63   1.966       .  S
O54          C62   1.261   1_455  A
O55         Cr63   2.013       .  S
O55          C56   1.266       .  A
C56          O57   1.258       .  A
C56         C489   1.493       .  S
O57         Cr64   1.975       .  S
O58         Cr64   2.032       .  S
O58          C59   1.272       .  A
C59          O60   1.261       .  A
C59         C580   1.504       .  S
O60         Cr65   1.976       .  S
O61         Cr65   2.036   1_655  S
O61          C62   1.275       .  A
C62         C405   1.489       .  S
Cr63         O66   1.763       .  S
Cr64         O66   1.765       .  S
Cr65         O66   1.767       .  S
O67         Cr85   2.008       .  S
O67          C75   1.262       .  A
O68         Cr85   1.963       .  S
O68          C69   1.258       .  A
C69          O70   1.270       .  A
C69         C321   1.478       .  S
O70         Cr86   2.014       .  S
O71         Cr86   1.955       .  S
O71          C72   1.255       .  A
C72          O73   1.270       .  A
C72         C377   1.503       .  S
O73         Cr87   2.023       .  S
O74         Cr87   1.988       .  S
O74          C75   1.259       .  A
C75         C832   1.500       .  S
O76         Cr85   1.961       .  S
O76          C84   1.262       .  A
O77         Cr85   2.019       .  S
O77          C78   1.266       .  A
C78          O79   1.257       .  A
C78         C356   1.505       .  S
O79         Cr86   1.978       .  S
O80         Cr86   2.009       .  S
O80          C81   1.266       .  A
C81          O82   1.263       .  A
C81         C433   1.497       .  S
O82         Cr87   1.988       .  S
O83         Cr87   2.031       .  S
O83          C84   1.275       .  A
C84         C300   1.489       .  S
Cr85         O88   1.770       .  S
Cr86         O88   1.765       .  S
Cr87         O88   1.767       .  S
O89        Cr107   2.015   1_565  S
O89          C97   1.266       .  A
O90        Cr107   1.976       .  S
O90          C91   1.264       .  A
C91          O92   1.271       .  A
C91         C524   1.504       .  S
O92        Cr108   2.023       .  S
O93        Cr108   1.958       .  S
O93          C94   1.254       .  A
C94          O95   1.269       .  A
C94         C349   1.488       .  S
O95        Cr109   2.026       .  S
O96        Cr109   1.985       .  S
O96          C97   1.260   1_545  A
C97         C244   1.512       .  S
O98        Cr107   1.982       .  S
O98         C106   1.264       .  A
O99        Cr107   2.004       .  S
O99         C100   1.264       .  A
C100        O101   1.259       .  A
C100        C384   1.498       .  S
O101       Cr108   1.981       .  S
O102       Cr108   2.032       .  S
O102        C103   1.272       .  A
C103        O104   1.260       .  A
C103        C265   1.508       .  S
O104       Cr109   1.978       .  S
O105       Cr109   2.028   1_565  S
O105        C106   1.272   1_565  A
C106        C692   1.499   1_545  S
Cr107       O110   1.770       .  S
Cr108       O110   1.771       .  S
Cr109       O110   1.774       .  S
O111       Cr129   2.025       .  S
O111        C119   1.268       .  A
O112       Cr129   1.955       .  S
O112        C113   1.257       .  A
C113        O114   1.266       .  A
C113        C328   1.472       .  S
O114       Cr130   2.012       .  S
O115       Cr130   1.964       .  S
O115        C116   1.254       .  A
C116        O117   1.267       .  A
C116        C741   1.481       .  S
O117       Cr131   2.023       .  S
O118       Cr131   1.990       .  S
O118        C119   1.262       .  A
C119        C272   1.503       .  S
O120       Cr129   1.965       .  S
O120        C128   1.260       .  A
O121       Cr129   2.015       .  S
O121        C122   1.266       .  A
C122        O123   1.260       .  A
C122        C769   1.495       .  S
O123       Cr130   1.980       .  S
O124       Cr130   2.018       .  S
O124        C125   1.269       .  A
C125        O126   1.262       .  A
C125        C209   1.495       .  S
O126       Cr131   1.980       .  S
O127       Cr131   2.024       .  S
O127        C128   1.271       .  A
C128        C552   1.485       .  S
Cr129       O132   1.771       .  S
Cr130       O132   1.774       .  S
Cr131       O132   1.777       .  S
O133       Cr151   2.016       .  S
O133        C141   1.263   1_565  A
O134       Cr151   1.966       .  S
O134        C135   1.261       .  A
C135        O136   1.270       .  A
C135        C720   1.482       .  S
O136       Cr152   2.017       .  S
O137       Cr152   1.964       .  S
O137        C138   1.256       .  A
C138        O139   1.267       .  A
C138        C629   1.483       .  S
O139       Cr153   2.020       .  S
O140       Cr153   1.979       .  S
O140        C141   1.257   1_565  A
C141        C216   1.497       .  S
O142       Cr151   1.972       .  S
O142        C150   1.262       .  A
O143       Cr151   2.003       .  S
O143        C144   1.263       .  A
C144        O145   1.259       .  A
C144        C608   1.493       .  S
O145       Cr152   1.986       .  S
O146       Cr152   2.014       .  S
O146        C147   1.267       .  A
C147        O148   1.259       .  A
C147        C188   1.481       .  S
O148       Cr153   1.969       .  S
O149       Cr153   2.032       .  S
O149        C150   1.275       .  A
C150        C412   1.493   1_565  S
Cr151       O154   1.772       .  S
Cr152       O154   1.776       .  S
Cr153       O154   1.773       .  S
O155       Cr173   2.009       .  S
O155        C163   1.262       .  A
O156       Cr173   1.960       .  S
O156        C157   1.257       .  A
C157        O158   1.273       .  A
C157        C664   1.483       .  S
O158       Cr174   2.024       .  S
O159       Cr174   1.959       .  S
O159        C160   1.255       .  A
C160        O161   1.270       .  A
C160        C496   1.500       .  S
O161       Cr175   2.027       .  S
O162       Cr175   1.986       .  S
O162        C163   1.260       .  A
C163        C181   1.501       .  S
O164       Cr173   1.958       .  S
O164        C172   1.262       .  A
O165       Cr173   2.025       .  S
O165        C166   1.267       .  A
C166        O167   1.255       .  A
C166        C468   1.504       .  S
O167       Cr174   1.973       .  S
O168       Cr174   2.018       .  S
O168        C169   1.269       .  A
C169        O170   1.260       .  A
C169        C237   1.497       .  S
O170       Cr175   1.971       .  S
O171       Cr175   2.031       .  S
O171        C172   1.275       .  A
C172        C293   1.504       .  S
Cr173       O176   1.770       .  S
Cr174       O176   1.761       .  S
Cr175       O176   1.765       .  S
C177        C178   1.409       .  A
C177        C182   1.413       .  A
C177        C195   1.450       .  S
C178        C183   1.498       .  S
C178        C179   1.408       .  A
C179        C180   1.411       .  A
C179        C184   1.452       .  S
C180        C181   1.424       .  A
C180        C196   1.451       .  S
C181        C182   1.420       .  A
C182        C185   1.451       .  S
C183        C186   1.411       .  A
C183        C190   1.412       .  A
C184        N201   1.157       .  T
C185        N203   1.157       .  T
C186        C187   1.409       .  A
C186        C191   1.450       .  S
C187        C188   1.413       .  A
C187        C193   1.452       .  S
C188        C189   1.410       .  A
C189        C190   1.413       .  A
C189        C192   1.449       .  S
C190        C194   1.450       .  S
C191        N198   1.157       .  T
C192        N199   1.157       .  T
C193        N197   1.157       .  T
C194        N200   1.157       .  T
C195        N204   1.157       .  T
C196        N202   1.157       .  T
C205        C206   1.412       .  A
C205        C210   1.413       .  A
C205        C223   1.451       .  S
C206        C211   1.506       .  S
C206        C207   1.413       .  A
C207        C208   1.416       .  A
C207        C212   1.450       .  S
C208        C209   1.415       .  A
C208        C224   1.450       .  S
C209        C210   1.417       .  A
C210        C213   1.451       .  S
C211        C214   1.412       .  A
C211        C218   1.412       .  A
C212        N229   1.157       .  T
C213        N231   1.157       .  T
C214        C215   1.414       .  A
C214        C219   1.450       .  S
C215        C216   1.417       .  A
C215        C221   1.451       .  S
C216        C217   1.418       .  A
C217        C218   1.414       .  A
C217        C220   1.451       .  S
C218        C222   1.451       .  S
C219        N226   1.157       .  T
C220        N227   1.157   1_545  T
C221        N225   1.157       .  T
C222        N228   1.157       .  T
C223        N232   1.157       .  T
C224        N230   1.157       .  T
C233        C234   1.410       .  A
C233        C238   1.413   1_556  A
C233        C251   1.450       .  S
C234        C239   1.503       .  S
C234        C235   1.411   1_556  A
C235        C236   1.414       .  A
C235        C240   1.451       .  S
C236        C237   1.418       .  A
C236        C252   1.451       .  S
C237        C238   1.418       .  A
C238        C241   1.452       .  S
C239        C242   1.408       .  A
C239        C246   1.408       .  A
C240        N257   1.157       .  T
C241        N259   1.157       .  T
C242        C243   1.417       .  A
C242        C247   1.451       .  S
C243        C244   1.425       .  A
C243        C249   1.450       .  S
C244        C245   1.425       .  A
C245        C246   1.414       .  A
C245        C248   1.450       .  S
C246        C250   1.453       .  S
C247        N254   1.157       .  T
C248        N255   1.157   1_565  T
C249        N253   1.157       .  T
C250        N256   1.157       .  T
C251        N260   1.157       .  T
C252        N258   1.157       .  T
C261        C262   1.412       .  A
C261        C266   1.416       .  A
C261        C279   1.451       .  S
C262        C267   1.513       .  S
C262        C263   1.413       .  A
C263        C264   1.418       .  A
C263        C268   1.450       .  S
C264        C265   1.417       .  A
C264        C280   1.448       .  S
C265        C266   1.423       .  A
C266        C269   1.451       .  S
C267        C270   1.414       .  A
C267        C274   1.413       .  A
C268        N285   1.157       .  T
C269        N287   1.158       .  T
C270        C271   1.418       .  A
C270        C275   1.450       .  S
C271        C272   1.416       .  A
C271        C277   1.450       .  S
C272        C273   1.417       .  A
C273        C274   1.416       .  A
C273        C276   1.447       .  S
C274        C278   1.452       .  S
C275        N282   1.157       .  T
C276        N283   1.156       .  T
C277        N281   1.157       .  T
C278        N284   1.157       .  T
C279        N288   1.157       .  T
C280        N286   1.157       .  T
C289        C290   1.410       .  A
C289        C294   1.409       .  A
C289        C307   1.453       .  S
C290        C295   1.501   1_554  S
C290        C291   1.411       .  A
C291        C292   1.414       .  A
C291        C296   1.452       .  S
C292        C293   1.422       .  A
C292        C308   1.451       .  S
C293        C294   1.423       .  A
C294        C297   1.453       .  S
C295        C298   1.412       .  A
C295        C302   1.414   1_556  A
C296        N313   1.157       .  T
C297        N315   1.158       .  T
C298        C299   1.409       .  A
C298        C303   1.452       .  S
C299        C300   1.417       .  A
C299        C305   1.452       .  S
C300        C301   1.414       .  A
C301        C302   1.412   1_556  A
C301        C304   1.450       .  S
C302        C306   1.451       .  S
C303        N310   1.157       .  T
C304        N311   1.157   1_556  T
C305        N309   1.157       .  T
C306        N312   1.157       .  T
C307        N316   1.157       .  T
C308        N314   1.158       .  T
C317        C318   1.409       .  A
C317        C322   1.407       .  A
C317        C335   1.452       .  S
C318        C323   1.486       .  S
C318        C319   1.410       .  A
C319        C320   1.406       .  A
C319        C324   1.452       .  S
C320        C321   1.412       .  A
C320        C336   1.448       .  S
C321        C322   1.415       .  A
C322        C325   1.452       .  S
C323        C326   1.411       .  A
C323        C330   1.409       .  A
C324        N341   1.157       .  T
C325        N343   1.157       .  T
C326        C327   1.409       .  A
C326        C331   1.450       .  S
C327        C328   1.412       .  A
C327        C333   1.451       .  S
C328        C329   1.413       .  A
C329        C330   1.402       .  A
C329        C332   1.453       .  S
C330        C334   1.452       .  S
C331        N338   1.157       .  T
C332        N339   1.157       .  T
C333        N337   1.157       .  T
C334        N340   1.157       .  T
C335        N344   1.157       .  T
C336        N342   1.156       .  T
C345        C346   1.409       .  A
C345        C350   1.412       .  A
C345        C363   1.450       .  S
C346        C351   1.499       .  S
C346        C347   1.412       .  A
C347        C348   1.411       .  A
C347        C352   1.449       .  S
C348        C349   1.413       .  A
C348        C364   1.450       .  S
C349        C350   1.418       .  A
C350        C353   1.451       .  S
C351        C354   1.406       .  A
C351        C358   1.410       .  A
C352        N369   1.156       .  T
C353        N371   1.157       .  T
C354        C355   1.414       .  A
C354        C359   1.451       .  S
C355        C356   1.426       .  A
C355        C361   1.451       .  S
C356        C357   1.421       .  A
C357        C358   1.413       .  A
C357        C360   1.452       .  S
C358        C362   1.452       .  S
C359        N366   1.157       .  T
C360        N367   1.158       .  T
C361        N365   1.158       .  T
C362        N368   1.157       .  T
C363        N372   1.157       .  T
C364        N370   1.157       .  T
C373        C374   1.412       .  A
C373        C378   1.415       .  A
C373        C391   1.450   1_655  S
C374        C379   1.500   1_655  S
C374        C375   1.405       .  A
C375        C376   1.407       .  A
C375        C380   1.453       .  S
C376        C377   1.425       .  A
C376        C392   1.449       .  S
C377        C378   1.421       .  A
C378        C381   1.451       .  S
C379        C382   1.413       .  A
C379        C386   1.408       .  A
C380        N397   1.157       .  T
C381        N399   1.158       .  T
C382        C383   1.409       .  A
C382        C387   1.453   1_455  S
C383        C384   1.418       .  A
C383        C389   1.452       .  S
C384        C385   1.423       .  A
C385        C386   1.414       .  A
C385        C388   1.450       .  S
C386        C390   1.451       .  S
C387        N394   1.157       .  T
C388        N395   1.157       .  T
C389        N393   1.157       .  T
C390        N396   1.157       .  T
C391        N400   1.157       .  T
C392        N398   1.156       .  T
C401        C402   1.414       .  A
C401        C406   1.413       .  A
C401        C419   1.451       .  S
C402        C407   1.506       .  S
C402        C403   1.414       .  A
C403        C404   1.414       .  A
C403        C408   1.450       .  S
C404        C405   1.413       .  A
C404        C420   1.450       .  S
C405        C406   1.415       .  A
C406        C409   1.452   1_655  S
C407        C410   1.413       .  A
C407        C414   1.413       .  A
C408        N425   1.157       .  T
C409        N427   1.158       .  T
C410        C411   1.414       .  A
C410        C415   1.450       .  S
C411        C412   1.414       .  A
C411        C417   1.451       .  S
C412        C413   1.416       .  A
C413        C414   1.414       .  A
C413        C416   1.451   1_545  S
C414        C418   1.451       .  S
C415        N422   1.157       .  T
C416        N423   1.157       .  T
C417        N421   1.157       .  T
C418        N424   1.157   1_545  T
C419        N428   1.157       .  T
C420        N426   1.157       .  T
C429        C430   1.412       .  A
C429        C434   1.415       .  A
C429        C447   1.450       .  S
C430        C435   1.506       .  S
C430        C431   1.411       .  A
C431        C432   1.414   1_554  A
C431        C436   1.451       .  S
C432        C433   1.419       .  A
C432        C448   1.451       .  S
C433        C434   1.415   1_556  A
C434        C437   1.450       .  S
C435        C438   1.408       .  A
C435        C442   1.408       .  A
C436        N453   1.157       .  T
C437        N455   1.157       .  T
C438        C439   1.417       .  A
C438        C443   1.451       .  S
C439        C440   1.427       .  A
C439        C445   1.451       .  S
C440        C441   1.427       .  A
C441        C442   1.415       .  A
C441        C444   1.451       .  S
C442        C446   1.452       .  S
C443        N450   1.157       .  T
C444        N451   1.157       .  T
C445        N449   1.158       .  T
C446        N452   1.157       .  T
C447        N456   1.157       .  T
C448        N454   1.157       .  T
C457        C458   1.411       .  A
C457        C462   1.410       .  A
C457        C475   1.449       .  S
C458        C463   1.499       .  S
C458        C459   1.410       .  A
C459        C460   1.413       .  A
C459        C464   1.450       .  S
C460        C461   1.418       .  A
C460        C476   1.452       .  S
C461        C462   1.412       .  A
C462        C465   1.449       .  S
C463        C466   1.410       .  A
C463        C470   1.406       .  A
C464        N481   1.157       .  T
C465        N483   1.156       .  T
C466        C467   1.414       .  A
C466        C471   1.451       .  S
C467        C468   1.420       .  A
C467        C473   1.451       .  S
C468        C469   1.426       .  A
C469        C470   1.412       .  A
C469        C472   1.451       .  S
C470        C474   1.451       .  S
C471        N478   1.157       .  T
C472        N479   1.158       .  T
C473        N477   1.157       .  T
C474        N480   1.157       .  T
C475        N484   1.156       .  T
C476        N482   1.158       .  T
C485        C486   1.409       .  A
C485        C490   1.411       .  A
C485        C503   1.451       .  S
C486        C491   1.500   1_545  S
C486        C487   1.412       .  A
C487        C488   1.411       .  A
C487        C492   1.451   1_545  S
C488        C489   1.416       .  A
C488        C504   1.452       .  S
C489        C490   1.420       .  A
C490        C493   1.451       .  S
C491        C494   1.407       .  A
C491        C498   1.412       .  A
C492        N509   1.157       .  T
C493        N511   1.157       .  T
C494        C495   1.410       .  A
C494        C499   1.452       .  S
C495        C496   1.422       .  A
C495        C501   1.449       .  S
C496        C497   1.419       .  A
C497        C498   1.414       .  A
C497        C500   1.451       .  S
C498        C502   1.451   1_565  S
C499        N506   1.157       .  T
C500        N507   1.158       .  T
C501        N505   1.156       .  T
C502        N508   1.157       .  T
C503        N512   1.157       .  T
C504        N510   1.157       .  T
C513        C514   1.408       .  A
C513        C518   1.408       .  A
C513        C531   1.453       .  S
C514        C519   1.495   1_554  S
C514        C515   1.409       .  A
C515        C516   1.412       .  A
C515        C520   1.450       .  S
C516        C517   1.419       .  A
C516        C532   1.451       .  S
C517        C518   1.423       .  A
C518        C521   1.453       .  S
C519        C522   1.406       .  A
C519        C526   1.407       .  A
C520        N537   1.157       .  T
C521        N539   1.158       .  T
C522        C523   1.413       .  A
C522        C527   1.452       .  S
C523        C524   1.425       .  A
C523        C529   1.449       .  S
C524        C525   1.422       .  A
C525        C526   1.410       .  A
C525        C528   1.449       .  S
C526        C530   1.453   1_556  S
C527        N534   1.157       .  T
C528        N535   1.156       .  T
C529        N533   1.157       .  T
C530        N536   1.158       .  T
C531        N540   1.157       .  T
C532        N538   1.157       .  T
C541        C542   1.411       .  A
C541        C546   1.409       .  A
C541        C559   1.450       .  S
C542        C547   1.498       .  S
C542        C543   1.413       .  A
C543        C544   1.413       .  A
C543        C548   1.450       .  S
C544        C545   1.412       .  A
C544        C560   1.451       .  S
C545        C546   1.412       .  A
C546        C549   1.451       .  S
C547        C550   1.411       .  A
C547        C554   1.411       .  A
C548        N565   1.157       .  T
C549        N567   1.157       .  T
C550        C551   1.413       .  A
C550        C555   1.450       .  S
C551        C552   1.414       .  A
C551        C557   1.451       .  S
C552        C553   1.415       .  A
C553        C554   1.410       .  A
C553        C556   1.452       .  S
C554        C558   1.451       .  S
C555        N562   1.157       .  T
C556        N563   1.157       .  T
C557        N561   1.157       .  T
C558        N564   1.157       .  T
C559        N568   1.157       .  T
C560        N566   1.157       .  T
C569        C570   1.412       .  A
C569        C574   1.415       .  A
C569        C587   1.452       .  S
C570        C575   1.506       .  S
C570        C571   1.412       .  A
C571        C572   1.415       .  A
C571        C576   1.449       .  S
C572        C573   1.414       .  A
C572        C588   1.450       .  S
C573        C574   1.415       .  A
C574        C577   1.448       .  S
C575        C578   1.411       .  A
C575        C582   1.410       .  A
C576        N593   1.157       .  T
C577        N595   1.156       .  T
C578        C579   1.417       .  A
C578        C583   1.450       .  S
C579        C580   1.418       .  A
C579        C585   1.449       .  S
C580        C581   1.422       .  A
C581        C582   1.414       .  A
C581        C584   1.452       .  S
C582        C586   1.452       .  S
C583        N590   1.157       .  T
C584        N591   1.157       .  T
C585        N589   1.157       .  T
C586        N592   1.157       .  T
C587        N596   1.157       .  T
C588        N594   1.157       .  T
C597        C598   1.414       .  A
C597        C602   1.410       .  A
C597        C615   1.452   1_455  S
C598        C603   1.501   1_455  S
C598        C599   1.413       .  A
C599        C600   1.413       .  A
C599        C604   1.449       .  S
C600        C601   1.411       .  A
C600        C616   1.451       .  S
C601        C602   1.412       .  A
C602        C605   1.451       .  S
C603        C606   1.411       .  A
C603        C610   1.411       .  A
C604        N621   1.157       .  T
C605        N623   1.157       .  T
C606        C607   1.411       .  A
C606        C611   1.451   1_655  S
C607        C608   1.415       .  A
C607        C613   1.451       .  S
C608        C609   1.417       .  A
C609        C610   1.414       .  A
C609        C612   1.450       .  S
C610        C614   1.450       .  S
C611        N618   1.157       .  T
C612        N619   1.157       .  T
C613        N617   1.157       .  T
C614        N620   1.157       .  T
C615        N624   1.157       .  T
C616        N622   1.157       .  T
C625        C626   1.415       .  A
C625        C630   1.417       .  A
C625        C643   1.449       .  S
C626        C631   1.503       .  S
C626        C627   1.414       .  A
C627        C628   1.408       .  A
C627        C632   1.452       .  S
C628        C629   1.412       .  A
C628        C644   1.452       .  S
C629        C630   1.412       .  A
C630        C633   1.449       .  S
C631        C634   1.411       .  A
C631        C638   1.415       .  A
C632        N649   1.157       .  T
C633        N651   1.157       .  T
C634        C635   1.412       .  A
C634        C639   1.451       .  S
C635        C636   1.417       .  A
C635        C641   1.452       .  S
C636        C637   1.410       .  A
C637        C638   1.413       .  A
C637        C640   1.450       .  S
C638        C642   1.450       .  S
C639        N646   1.157       .  T
C640        N647   1.157       .  T
C641        N645   1.157       .  T
C642        N648   1.157       .  T
C643        N652   1.157       .  T
C644        N650   1.157       .  T
C653        C654   1.410       .  A
C653        C658   1.409       .  A
C653        C671   1.450       .  S
C654        C659   1.490       .  S
C654        C655   1.409       .  A
C655        C656   1.406       .  A
C655        C660   1.451       .  S
C656        C657   1.416       .  A
C656        C672   1.453       .  S
C657        C658   1.412       .  A
C658        C661   1.450       .  S
C659        C662   1.408       .  A
C659        C666   1.412       .  A
C660        N677   1.157       .  T
C661        N679   1.157       .  T
C662        C663   1.409       .  A
C662        C667   1.451       .  S
C663        C664   1.416       .  A
C663        C669   1.449       .  S
C664        C665   1.411       .  A
C665        C666   1.408       .  A
C665        C668   1.449       .  S
C666        C670   1.451       .  S
C667        N674   1.157       .  T
C668        N675   1.156       .  T
C669        N673   1.156       .  T
C670        N676   1.157       .  T
C671        N680   1.157       .  T
C672        N678   1.157       .  T
C681        C682   1.416       .  A
C681        C686   1.418       .  A
C681        C699   1.450       .  S
C682        C687   1.515       .  S
C682        C683   1.415       .  A
C683        C684   1.416   1_455  A
C683        C688   1.451   1_455  S
C684        C685   1.416   1_655  A
C684        C700   1.452       .  S
C685        C686   1.415       .  A
C686        C689   1.451       .  S
C687        C690   1.416       .  A
C687        C694   1.415       .  A
C688        N705   1.157       .  T
C689        N707   1.158       .  T
C690        C691   1.416       .  A
C690        C695   1.450       .  S
C691        C692   1.416       .  A
C691        C697   1.452   1_565  S
C692        C693   1.415       .  A
C693        C694   1.417       .  A
C693        C696   1.450       .  S
C694        C698   1.450       .  S
C695        N702   1.157   1_565  T
C696        N703   1.157       .  T
C697        N701   1.157       .  T
C698        N704   1.157       .  T
C699        N708   1.157       .  T
C700        N706   1.157       .  T
C709        C710   1.412       .  A
C709        C714   1.412       .  A
C709        C727   1.450       .  S
C710        C715   1.496       .  S
C710        C711   1.412       .  A
C711        C712   1.407       .  A
C711        C716   1.452       .  S
C712        C713   1.413       .  A
C712        C728   1.452       .  S
C713        C714   1.413       .  A
C714        C717   1.450       .  S
C715        C718   1.411       .  A
C715        C722   1.413       .  A
C716        N733   1.157       .  T
C717        N735   1.157       .  T
C718        C719   1.408       .  A
C718        C723   1.452       .  S
C719        C720   1.414       .  A
C719        C725   1.450       .  S
C720        C721   1.413       .  A
C721        C722   1.410       .  A
C721        C724   1.450       .  S
C722        C726   1.451       .  S
C723        N730   1.157       .  T
C724        N731   1.157       .  T
C725        N729   1.156       .  T
C726        N732   1.157       .  T
C727        N736   1.157       .  T
C728        N734   1.157       .  T
C737        C738   1.411       .  A
C737        C742   1.414       .  A
C737        C755   1.449       .  S
C738        C743   1.497   1_545  S
C738        C739   1.411       .  A
C739        C740   1.409       .  A
C739        C744   1.452   1_545  S
C740        C741   1.412       .  A
C740        C756   1.450       .  S
C741        C742   1.414       .  A
C742        C745   1.451       .  S
C743        C746   1.408       .  A
C743        C750   1.411       .  A
C744        N761   1.157       .  T
C745        N763   1.157       .  T
C746        C747   1.412       .  A
C746        C751   1.451       .  S
C747        C748   1.420       .  A
C747        C753   1.451       .  S
C748        C749   1.415       .  A
C749        C750   1.412       .  A
C749        C752   1.451       .  S
C750        C754   1.450   1_565  S
C751        N758   1.157       .  T
C752        N759   1.157       .  T
C753        N757   1.157       .  T
C754        N760   1.157       .  T
C755        N764   1.157       .  T
C756        N762   1.157       .  T
C765        C766   1.410       .  A
C765        C770   1.415       .  A
C765        C783   1.450       .  S
C766        C771   1.505       .  S
C766        C767   1.414       .  A
C767        C768   1.414       .  A
C767        C772   1.450       .  S
C768        C769   1.413       .  A
C768        C784   1.450       .  S
C769        C770   1.419       .  A
C770        C773   1.451       .  S
C771        C774   1.414       .  A
C771        C778   1.412       .  A
C772        N789   1.157       .  T
C773        N791   1.157       .  T
C774        C775   1.417       .  A
C774        C779   1.449       .  S
C775        C776   1.413       .  A
C775        C781   1.450       .  S
C776        C777   1.413       .  A
C777        C778   1.411       .  A
C777        C780   1.450       .  S
C778        C782   1.452       .  S
C779        N786   1.157       .  T
C780        N787   1.157       .  T
C781        N785   1.157       .  T
C782        N788   1.157       .  T
C783        N792   1.157       .  T
C784        N790   1.157       .  T
C793        C794   1.409       .  A
C793        C798   1.414       .  A
C793        C811   1.450       .  S
C794        C799   1.501       .  S
C794        C795   1.409       .  A
C795        C796   1.413       .  A
C795        C800   1.452       .  S
C796        C797   1.420       .  A
C796        C812   1.450       .  S
C797        C798   1.420       .  A
C798        C801   1.451       .  S
C799        C802   1.411       .  A
C799        C806   1.412       .  A
C800        N817   1.157       .  T
C801        N819   1.157       .  T
C802        C803   1.411       .  A
C802        C807   1.451       .  S
C803        C804   1.415       .  A
C803        C809   1.451       .  S
C804        C805   1.412       .  A
C805        C806   1.414       .  A
C805        C808   1.450       .  S
C806        C810   1.449       .  S
C807        N814   1.157       .  T
C808        N815   1.157       .  T
C809        N813   1.157       .  T
C810        N816   1.157       .  T
C811        N820   1.157       .  T
C812        N818   1.157   1_455  T
C821        C822   1.412       .  A
C821        C826   1.409       .  A
C821        C839   1.451       .  S
C822        C827   1.501       .  S
C822        C823   1.414       .  A
C823        C824   1.414       .  A
C823        C828   1.450       .  S
C824        C825   1.411       .  A
C824        C840   1.450       .  S
C825        C826   1.414       .  A
C826        C829   1.452       .  S
C827        C830   1.411       .  A
C827        C834   1.409       .  A
C828        N845   1.157       .  T
C829        N847   1.157       .  T
C830        C831   1.414       .  A
C830        C835   1.451       .  S
C831        C832   1.419       .  A
C831        C837   1.451       .  S
C832        C833   1.422       .  A
C833        C834   1.411       .  A
C833        C836   1.451       .  S
C834        C838   1.452       .  S
C835        N842   1.157       .  T
C836        N843   1.157       .  T
C837        N841   1.157       .  T
C838        N844   1.157       .  T
C839        N848   1.157       .  T
C840        N846   1.157       .  T
