geometry optimzed in LAMMPS
_audit_creation_date              2020-12-01 
_audit_creation_method            'lammps2cif' 
_symmetry_space_group_name_H-M    'P1' 
_symmetry_Int_Tables_number       1 
_symmetry_cell_setting            triclinic 
loop_ 
_symmetry_equiv_pos_as_xyz 
  x,y,z 
_cell_length_a                    32.86147526 
_cell_length_b                    33.19417913883435 
_cell_length_c                    44.59185137009573 
_cell_angle_alpha                 88.59120759550405 
_cell_angle_beta                  90.21463525229083 
_cell_angle_gamma                 119.81424266912984 
loop_ 
_atom_site_label 
_atom_site_type_symbol 
_atom_site_fract_x 
_atom_site_fract_y 
_atom_site_fract_z 
_atom_site_charge 
O1          O  0.52448145  0.06620784  0.04634017    -0.82300
C2          C  0.68193040  0.17990079  0.47463536     0.97100
O3          O  0.67445125  0.18716900  0.00082203    -0.71400
O4          O  0.59899959  0.19018265  0.00564327    -0.75000
Al5        Al  0.62506745  0.15725827  0.02764061     1.49000
C6          C  0.55585120  0.17556049  0.00262212     0.92300
O7          O  0.53456296  0.09967719  0.46205124    -0.81200
O8          O  0.57590890  0.01659669  0.49889814    -0.74800
Al9        Al  0.53034945  0.08390104  0.50473286     1.90100
O10         O  0.58112173  0.07152168  0.45126950    -0.70300
O11         O  0.66774900  0.09280493  0.51522117    -0.73700
O12         O  0.66189941  0.13944495  0.46470272    -0.79400
O13         O  0.65793002  0.13317028  0.04991447    -0.77600
O14         O  0.59224514  0.10650269  0.00639060    -1.13700
O15         O  0.58054461  0.13519398  0.06018465    -0.72900
C16         C  0.54799406  0.09425730  0.06671018     0.97800
C17         C  0.55468397  0.08709727  0.44289706     0.94200
Al18       Al  0.61957504  0.08184119  0.48496047     1.55600
O19         O  0.52789222  0.13695418  0.01398083    -0.77500
C20         C  0.68164547  0.11642317  0.03913346     0.98400
C21         C  0.53172315  0.99973204  0.49479003     0.93300
O22         O  0.51437749  0.02531690  0.49595169    -0.82800
O23         O  0.42554810  0.08181910  0.27121559    -0.82300
C24         C  0.61964208  0.15979902  0.23973871     0.97100
O25         O  0.60147662  0.18086601  0.25193808    -0.71400
O26         O  0.53461725  0.18230802  0.22562930    -0.75000
Al27       Al  0.53894767  0.16182407  0.26417247     1.49000
C28         C  0.49632937  0.17772578  0.21709440     0.92300
O29         O  0.48276089  0.08098969  0.19737274    -0.81200
O30         O  0.48820224  0.02065765  0.27146509    -0.74800
Al31       Al  0.45588764  0.07995183  0.23400878     1.90100
O32         O  0.53034812  0.05519906  0.21305941    -0.73900
O33         O  0.55776249  0.08698330  0.29686822    -0.73700
O34         O  0.59943551  0.11672437  0.24038925    -0.79400
O35         O  0.54652016  0.14614191  0.30351376    -0.77600
O36         O  0.51260953  0.10456896  0.25174605    -1.13700
O37         O  0.48031459  0.15512183  0.27881429    -0.72900
C38         C  0.43849573  0.12178446  0.28255055     0.97800
C39         C  0.51038737  0.06585322  0.19206158     0.94200
Al40       Al  0.54176555  0.07205325  0.25545419     1.55600
O41         O  0.45929405  0.13914067  0.22183145    -0.77500
C42         C  0.55350649  0.11466815  0.31406469     0.98400
C43         C  0.46119104  0.99549653  0.25190649     0.93300
O44         O  0.43931973  0.01237930  0.23755004    -0.82800
O45         O  0.54270912  0.44167227  0.04609030    -0.82300
C46         C  0.49860369  0.28988661  0.47471697     0.97100
O47         O  0.51886426  0.29851674  0.99958258    -0.71400
O48         O  0.59563993  0.37292975  0.00478207    -0.75000
Al49       Al  0.53687054  0.34441613  0.02709758     1.49000
C50         C  0.62275087  0.41596047  0.00181218     0.92300
O51         O  0.56571433  0.43713877  0.46279310    -0.81200
O52         O  0.44144340  0.39384402  0.50142054    -0.74800
Al53       Al  0.55423716  0.43885093  0.50503515     1.90100
O54         O  0.49067957  0.39224269  0.45182526    -0.73900
O55         O  0.42701050  0.30229429  0.51645002    -0.73700
O56         O  0.47700419  0.31003639  0.46537231    -0.79400
O57         O  0.48021550  0.30846085  0.04954156    -0.77600
O58         O  0.51641586  0.37741383  0.50652322    -1.13700
O59         O  0.55802851  0.38619292  0.06010738    -0.72900
C60         C  0.54830916  0.41762962  0.06650000     0.97800
C61         C  0.53305209  0.41844640  0.44356042     0.94200
Al62       Al  0.46302492  0.35170590  0.48600695     1.55600
O63         O  0.61135604  0.44189423  0.01436427    -0.77500
C64         C  0.43883477  0.28680224  0.03969889     0.98400
C65         C  0.46756361  0.43778129  0.49729513     0.93300
O66         O  0.51076319  0.45527708  0.49610297    -0.82800
O67         O  0.65904873  0.54888912  0.26515745    -0.82300
C68         C  0.54303812  0.35386503  0.24559589     0.97100
O69         O  0.58158418  0.37288426  0.25908289    -0.71400
O70         O  0.65015131  0.43574609  0.22909763    -0.75000
Al71       Al  0.62557804  0.43639750  0.26658565     1.49000
C72         C  0.67883125  0.47163946  0.21460637     0.92300
O73         O  0.59678813  0.48591111  0.19444549    -0.81200
O74         O  0.53317809  0.48576079  0.26698819    -0.74800
Al75       Al  0.62450450  0.51525574  0.22964767     1.90100
O76         O  0.52425232  0.43977014  0.21144593    -0.73900
O77         O  0.53076373  0.41803556  0.29653493    -0.73700
O78         O  0.51992648  0.37399476  0.24239804    -0.79400
O79         O  0.60306071  0.43437536  0.30564686    -0.77600
O80         O  0.59351757  0.46078664  0.25052475    -1.13700
O81         O  0.67831575  0.49521760  0.27691184    -0.72900
C82         C  0.68662622  0.53678111  0.27798616     0.97800
C83         C  0.55413687  0.45750841  0.19000449     0.94200
Al84       Al  0.53151750  0.43173896  0.25430012     1.55600
O85         O  0.67833518  0.50920623  0.21769673    -0.77500
C86         C  0.56310636  0.42522739  0.31491317     0.98400
C87         C  0.53589610  0.51273859  0.24630441     0.93300
O88         O  0.57439563  0.53301381  0.23174092    -0.82800
O89         O  0.88610892  0.30907111  0.26859456    -0.82300
C90         C  0.80383723  0.42005844  0.23385577     0.97100
O91         O  0.78377646  0.38171265  0.24794607    -0.71400
O92         O  0.78501793  0.31498957  0.22227302    -0.75000
Al93       Al  0.80423378  0.33943266  0.26027719     1.49000
C94         C  0.79369792  0.28493431  0.21248417     0.92300
O95         O  0.89143701  0.36871020  0.19318508    -0.81200
O96         O  0.94494331  0.43342492  0.26699598    -0.74800
Al97       Al  0.89011740  0.34225096  0.23076527     1.90100
O98         O  0.91381271  0.44043138  0.20697507    -0.73900
O99         O  0.87449167  0.43358953  0.29019748    -0.73700
O100        O  0.84732261  0.44330390  0.23247164    -0.79400
O101        O  0.81860081  0.36172727  0.29927582    -0.77600
O102        O  0.86251178  0.37201738  0.24716464    -1.13700
O103        O  0.81130236  0.28858505  0.27538572    -0.72900
C104        C  0.84523114  0.28126913  0.27993328     0.97800
C105        C  0.90442664  0.41058837  0.18656727     0.94200
Al106      Al  0.89318577  0.43327668  0.24921934     1.55600
O107        O  0.83267523  0.28754376  0.21817807    -0.77500
C108        C  0.84758774  0.40126707  0.30849415     0.98400
C109        C  0.97256949  0.43075809  0.24937179     0.93300
O110        O  0.95689895  0.39312291  0.23533893    -0.82800
O111        O  0.90044255  0.42432697  0.03901918    -0.82300
C112        C  0.79167916  0.47734380  0.46943640     0.97100
O113        O  0.78213981  0.45937862  0.99523330    -0.71400
O114        O  0.77468910  0.37989828  0.00167829    -0.75000
Al115      Al  0.81068694  0.43826500  0.02217463     1.49000
C116        C  0.78816700  0.35082541  0.99858788     0.92300
O117        O  0.86324754  0.40250533  0.45619332    -0.81200
O118        O  0.95421664  0.52481012  0.48998250    -0.74800
Al119      Al  0.88188025  0.41383619  0.49805020     1.90100
O120        O  0.89719511  0.47710097  0.44356695    -0.73900
O121        O  0.87985847  0.54483367  0.00678988    -0.73700
O122        O  0.83201751  0.49477784  0.45800262    -0.79400
O123        O  0.83783006  0.49473811  0.04273566    -0.77600
O124        O  0.86099870  0.45406312  0.99965794    -1.13700
O125        O  0.83255445  0.41509206  0.05510253    -0.72900
C126        C  0.87326472  0.42094043  0.06038707     0.97800
C127        C  0.87662161  0.43497231  0.43618152     0.94200
Al128      Al  0.88917954  0.50670220  0.47696182     1.55600
O129        O  0.82604970  0.35956540  0.01015026    -0.77500
C130        C  0.85459568  0.53463209  0.03058185     0.98400
C131        C  0.96933108  0.49643556  0.48532662     0.93300
O132        O  0.94168186  0.45394822  0.48629824    -0.82800
O133        O  0.57637170  0.76455212  0.21592477    -0.82300
C134        C  0.46212875  0.81200260  0.14672340     0.97100
O135        O  0.45498926  0.79631927  0.17314878    -0.71400
O136        O  0.44972401  0.71841525  0.18168324    -0.75000
Al137      Al  0.48584519  0.77764885  0.19990865     1.49000
C138        C  0.46233889  0.68865438  0.17897334     0.92300
O139        O  0.53565430  0.73762977  0.13386351    -0.81200
O140        O  0.62691645  0.86195991  0.16407512    -0.74800
Al141      Al  0.55549039  0.75133063  0.17538008     1.90100
O142        O  0.56729115  0.81156769  0.11959805    -0.73900
O143        O  0.55353628  0.88329857  0.18158791    -0.73700
O144        O  0.50214951  0.82962796  0.13465144    -0.79400
O145        O  0.51342089  0.83565622  0.21899884    -0.77600
O146        O  0.53489951  0.79204046  0.17636317    -1.13700
O147        O  0.50922126  0.75653224  0.23245027    -0.72900
C148        C  0.54984737  0.76229584  0.23736137     0.97800
C149        C  0.54832871  0.76906998  0.11319854     0.94200
Al150      Al  0.56085172  0.84286716  0.15256036     1.55600
O151        O  0.50135951  0.69777968  0.18869134    -0.77500
C152        C  0.53017825  0.87504701  0.20610429     0.98400
C153        C  0.64200733  0.83332085  0.16029284     0.93300
O154        O  0.61455775  0.79096846  0.16259202    -0.82800
O155        O  0.55168551  0.64250774  0.44395052    -0.82300
C156        C  0.47422472  0.75793047  0.41131914     0.97100
O157        O  0.45312461  0.71965104  0.42551361    -0.71400
O158        O  0.44901044  0.64961820  0.40031852    -0.75000
Al159      Al  0.47169336  0.67579293  0.43780446     1.49000
C160        C  0.45679156  0.61904812  0.39030834     0.92300
O161        O  0.55522088  0.70182817  0.36893161    -0.81200
O162        O  0.61322474  0.76534125  0.44228655    -0.74800
Al163      Al  0.55481391  0.67548860  0.40627954     1.90100
O164        O  0.58131554  0.77408402  0.38327857    -0.73900
O165        O  0.54606707  0.76981970  0.46659406    -0.73700
O166        O  0.51769784  0.78015156  0.40974069    -0.79400
O167        O  0.48879034  0.69908906  0.47653344    -0.77600
O168        O  0.52943827  0.70671591  0.42348476    -1.13700
O169        O  0.47783008  0.62418505  0.45269710    -0.72900
C170        C  0.51111141  0.61548265  0.45593969     0.97800
C171        C  0.57109818  0.74435696  0.36276397     0.94200
Al172      Al  0.56238042  0.76797279  0.42554760     1.55600
O173        O  0.49603040  0.62164369  0.39486878    -0.77500
C174        C  0.51942388  0.73833726  0.48530017     0.98400
C175        C  0.63959207  0.76324190  0.42334347     0.93300
O176        O  0.62278238  0.72545784  0.40932246    -0.82800
O177        O  0.08972191  0.40826013  0.43652537    -0.82300
C178        C  0.28307170  0.47634113  0.41225238     0.97100
O179        O  0.26712330  0.49241550  0.43134914    -0.71400
O180        O  0.21021534  0.50982890  0.40186508    -0.75000
Al181      Al  0.20391711  0.47815413  0.43811625     1.49000
C182        C  0.17517002  0.50845821  0.38945714     0.92300
O183        O  0.15059191  0.40968202  0.36406430    -0.81200
O184        O  0.14799942  0.34041225  0.43644836    -0.74800
Al185      Al  0.12272579  0.40747037  0.40033656     1.90100
O186        O  0.18893983  0.37360256  0.37805189    -0.73900
O187        O  0.22238531  0.40080794  0.46166348    -0.73700
O188        O  0.25992073  0.43527427  0.40438585    -0.79400
O189        O  0.19890142  0.44926989  0.47511720    -0.77600
O190        O  0.17663581  0.42513358  0.41968991    -1.13700
O191        O  0.14694344  0.47742889  0.44903318    -0.72900
C192        C  0.10377771  0.44728320  0.44927292     0.97800
C193        C  0.17303824  0.38948234  0.35767191     0.94200
Al194      Al  0.20290203  0.38975354  0.42029135     1.55600
O195        O  0.13580697  0.47094988  0.39021524    -0.77500
C196        C  0.20983512  0.41890321  0.48177092     0.98400
C197        C  0.11906228  0.31746184  0.41700955     0.93300
O198        O  0.10026020  0.33789103  0.40268986    -0.82800
O199        O  0.18251714  0.40031457  0.21154997    -0.82300
C200        C  0.33974851  0.51372350  0.14342587     0.97100
O201        O  0.30587970  0.51390109  0.15620883    -0.71400
O202        O  0.23095407  0.49497556  0.18485232    -0.75000
Al203      Al  0.27940524  0.47927327  0.19116682     1.49000
C204        C  0.19893554  0.48049232  0.16551727     0.92300
O205        O  0.19199981  0.38111155  0.12724861    -0.81200
O206        O  0.24505137  0.34373551  0.15030872    -0.74800
Al207      Al  0.19261894  0.39323730  0.16983305     1.90100
O208        O  0.26684260  0.41775869  0.11405512    -0.73900
O209        O  0.32337662  0.40937799  0.18641331    -0.73700
O210        O  0.34197438  0.47659535  0.14278218    -0.79400
O211        O  0.33499151  0.47687307  0.20204300    -0.77600
O212        O  0.25427031  0.42832440  0.17057221    -1.13700
O213        O  0.25399400  0.44705706  0.22724556    -0.72900
C214        C  0.21202800  0.41682483  0.23255404     0.97800
C215        C  0.22418801  0.39725163  0.10727217     0.94200
Al216      Al  0.29136043  0.41260014  0.15039758     1.55600
O217        O  0.18167591  0.44035959  0.15587236    -0.77500
C218        C  0.34756588  0.44649843  0.20111189     0.98400
C219        C  0.20545301  0.32166170  0.16383850     0.93300
O220        O  0.19758708  0.34239446  0.18387611    -0.82800
O221        O  0.20493600  0.77648233  0.21412643    -0.82300
C222        C  0.15916697  0.61755182  0.14732990     0.97100
O223        O  0.18205627  0.63062978  0.17097499    -0.71400
O224        O  0.25805584  0.70549939  0.17682254    -0.75000
Al225      Al  0.19828131  0.67742499  0.19761831     1.49000
C226        C  0.28565905  0.74825956  0.17313416     0.92300
O227        O  0.22933488  0.76817130  0.13133681    -0.81200
O228        O  0.10457627  0.72702493  0.16624402    -0.74800
Al229      Al  0.21710400  0.77141322  0.17329970     1.90100
O230        O  0.15507212  0.72041210  0.11957268    -0.73900
O231        O  0.08867496  0.63772190  0.18566676    -0.73700
O232        O  0.13734540  0.63697887  0.13689899    -0.79400
O233        O  0.14047333  0.64141801  0.21872921    -0.77600
O234        O  0.17898589  0.70977589  0.17547814    -1.13700
O235        O  0.21717836  0.71978672  0.23021149    -0.72900
C236        C  0.20934451  0.75284437  0.23533311     0.97800
C237        C  0.19734512  0.74786556  0.11184282     0.94200
Al238      Al  0.12583106  0.68307486  0.15438652     1.55600
O239        O  0.27391750  0.77522694  0.18370302    -0.77500
C240        C  0.09938113  0.62076036  0.20831770     0.98400
C241        C  0.13154369  0.77064239  0.16208363     0.93300
O242        O  0.17449705  0.78748733  0.16312282    -0.82800
O243        O  0.32581275  0.88005168  0.43790818    -0.82300
C244        C  0.21634612  0.68610791  0.41365489     0.97100
O245        O  0.25201923  0.70506823  0.42992174    -0.71400
O246        O  0.32017947  0.76992104  0.39994241    -0.75000
Al247      Al  0.29450250  0.76866161  0.43732060     1.49000
C248        C  0.34901554  0.80715304  0.38665778     0.92300
O249        O  0.26582046  0.82076458  0.36563130    -0.81200
O250        O  0.19731697  0.81124592  0.43795418    -0.74800
Al251      Al  0.29182713  0.84779109  0.40178523     1.90100
O252        O  0.19299477  0.77236847  0.38059725    -0.73900
O253        O  0.19726334  0.74255453  0.46513821    -0.73700
O254        O  0.19269219  0.70530823  0.40847803    -0.79400
O255        O  0.27092733  0.76568355  0.47568332    -0.77600
O256        O  0.26164088  0.79210773  0.42107717    -1.13700
O257        O  0.34616859  0.82701845  0.44846933    -0.72900
C258        C  0.35412559  0.86827630  0.45009739     0.97800
C259        C  0.22361629  0.79271881  0.35979904     0.94200
Al260      Al  0.19947258  0.76026060  0.42314746     1.55600
O261        O  0.34642762  0.84363275  0.38971904    -0.77500
C262        C  0.22969373  0.75277236  0.48415742     0.98400
C263        C  0.20027349  0.83979382  0.41828050     0.93300
O264        O  0.23992760  0.86319255  0.40508846    -0.82800
O265        O  0.23725896  0.09014057  0.38458350    -0.82300
C266        C  0.11990529  0.13043380  0.31374735     0.97100
O267        O  0.11257689  0.11416600  0.34002590    -0.71400
O268        O  0.11131427  0.03763323  0.34732675    -0.75000
Al269      Al  0.14395600  0.09664391  0.36698452     1.49000
C270        C  0.12688369  0.01012871  0.34457936     0.92300
O271        O  0.20244809  0.06308587  0.30199733    -0.81200
O272        O  0.28519849  0.18847804  0.33334127    -0.74800
Al273      Al  0.21896637  0.07663108  0.34397651     1.90100
O274        O  0.22913676  0.13659766  0.28819398    -0.73900
O275        O  0.20766351  0.20326585  0.34982425    -0.73700
O276        O  0.16028849  0.14972551  0.30212488    -0.79400
O277        O  0.16805544  0.15399758  0.38682139    -0.77600
O278        O  0.19472680  0.11439466  0.34431025    -1.13700
O279        O  0.16757340  0.07629176  0.40000747    -0.72900
C280        C  0.20932860  0.08577663  0.40556894     0.97800
C281        C  0.21428850  0.09471558  0.28156018     0.94200
Al282      Al  0.21901192  0.16566842  0.32091902     1.55600
O283        O  0.16549973  0.02097003  0.35590026    -0.77500
C284        C  0.18351675  0.19343835  0.37408317     0.98400
C285        C  0.30305763  0.16212282  0.33004269     0.93300
O286        O  0.27791791  0.11941622  0.33287175    -0.82800
O287        O  0.22345786  0.97793097  0.11026346    -0.82300
C288        C  0.14311139  0.09193480  0.07981672     0.97100
O289        O  0.12302344  0.05340038  0.09363453    -0.71400
O290        O  0.12100443  0.98576973  0.06687143    -0.75000
Al291      Al  0.14276913  0.01035886  0.10483097     1.49000
C292        C  0.12817001  0.95448092  0.05757278     0.92300
O293        O  0.22720753  0.03962250  0.03633474    -0.81200
O294        O  0.28460335  0.10258923  0.10953359    -0.74800
Al295      Al  0.22670962  0.01212266  0.07314775     1.90100
O296        O  0.25235876  0.11164296  0.05114141    -0.73900
O297        O  0.21604566  0.10356649  0.13485826    -0.73700
O298        O  0.18662659  0.11497732  0.07802151    -0.79400
O299        O  0.15937233  0.03210754  0.14382569    -0.77600
O300        O  0.20071399  0.04242029  0.09081769    -1.13700
O301        O  0.14940604  0.95897601  0.11879460    -0.72900
C302        C  0.18264991  0.95027212  0.12175421     0.97800
C303        C  0.24186054  0.08206156  0.03050949     0.94200
Al304      Al  0.23268217  0.10375830  0.09342887     1.55600
O305        O  0.16794776  0.95784745  0.06131468    -0.77500
C306        C  0.18993506  0.07095772  0.15316803     0.98400
C307        C  0.31084238  0.10051655  0.09042878     0.93300
O308        O  0.29433332  0.06234928  0.07683572    -0.82800
O309        O  0.85533768  0.74546290  0.37660702    -0.82300
C310        C  0.01153135  0.84283569  0.30314737     0.97100
O311        O  0.97906366  0.84703146  0.31459787    -0.71400
O312        O  0.90740776  0.83763617  0.34320362    -0.75000
Al313      Al  0.95293027  0.81885512  0.35163909     1.49000
C314        C  0.87261946  0.82121969  0.32595035     0.92300
O315        O  0.85780151  0.71511774  0.29364195    -0.81200
O316        O  0.90732420  0.67491959  0.31955157    -0.74800
Al317      Al  0.86154509  0.73238593  0.33555513     1.90100
O318        O  0.93203317  0.74523545  0.27964910    -0.73900
O319        O  0.98913270  0.74195611  0.35335734    -0.73700
O320        O  0.01087493  0.80423174  0.30559302    -0.79400
O321        O  0.00685349  0.81358567  0.36388005    -0.77600
O322        O  0.92357808  0.76463158  0.33473113    -1.13700
O323        O  0.92793624  0.79371552  0.38960618    -0.72900
C324        C  0.88608559  0.76486213  0.39664534     0.97800
C325        C  0.88930309  0.72809808  0.27332814     0.94200
Al326      Al  0.95709832  0.74277591  0.31644179     1.55600
O327        O  0.85241649  0.77945862  0.31933692    -0.77500
C328        C  0.01593207  0.78064481  0.36594576     0.98400
C329        C  0.86762922  0.65697561  0.33294372     0.93300
O330        O  0.86326204  0.68113646  0.35211993    -0.82800
O331        O  0.75426598  0.74088821  0.10158018    -0.82300
C332        C  0.95064917  0.81156380  0.08025296     0.97100
O333        O  0.93290865  0.82832099  0.09746342    -0.71400
O334        O  0.87498167  0.84483951  0.06869093    -0.75000
Al335      Al  0.86920273  0.81224364  0.10451125     1.49000
C336        C  0.83956925  0.84426311  0.05759526     0.92300
O337        O  0.81885435  0.74861478  0.02898424    -0.81200
O338        O  0.81294261  0.67387963  0.09885487    -0.74800
Al339      Al  0.78902210  0.74310774  0.06518733     1.90100
O340        O  0.85917287  0.71400061  0.04231779    -0.73900
O341        O  0.88458145  0.73161840  0.12734986    -0.73700
O342        O  0.92793892  0.77051781  0.07242419    -0.79400
O343        O  0.86510318  0.78293000  0.14131859    -0.77600
O344        O  0.84265151  0.75996656  0.08528522    -1.13700
O345        O  0.81134863  0.80919646  0.11593852    -0.72900
C346        C  0.76819045  0.77894377  0.11567682     0.97800
C347        C  0.84384350  0.73114089  0.02234292     0.94200
Al348      Al  0.86904179  0.72464956  0.08542441     1.55600
O349        O  0.80064544  0.80648607  0.05739742    -0.77500
C350        C  0.87468318  0.75150025  0.14766434     0.98400
C351        C  0.78590438  0.65276985  0.07816886     0.93300
O352        O  0.76741525  0.67397556  0.06461079    -0.82800
O353        O  0.87044092  0.10851150  0.38397893    -0.82300
C354        C  0.81998915  0.94936460  0.31670890     0.97100
O355        O  0.83876639  0.95849338  0.34198209    -0.71400
O356        O  0.91749477  0.03125795  0.34767220    -0.75000
Al357      Al  0.85806226  0.00693126  0.36838495     1.49000
C358        C  0.94692347  0.07350614  0.34351523     0.92300
O359        O  0.89440421  0.09823126  0.30154930    -0.81200
O360        O  0.76987430  0.06184437  0.33567400    -0.74800
Al361      Al  0.88222736  0.10232969  0.34332460     1.90100
O362        O  0.81973382  0.05417199  0.28942269    -0.73900
O363        O  0.75026668  0.96930993  0.35465710    -0.73700
O364        O  0.80105842  0.97123800  0.30577737    -0.79400
O365        O  0.80031378  0.97530133  0.38966039    -0.77600
O366        O  0.84181319  0.04121047  0.34558096    -1.13700
O367        O  0.87972285  0.05033069  0.40063482    -0.72900
C368        C  0.87378267  0.08469326  0.40547085     0.97800
C369        C  0.86243024  0.07973208  0.28189350     0.94200
Al370      Al  0.78930735  0.01634807  0.32384165     1.55600
O371        O  0.93762589  0.10252089  0.35380776    -0.77500
C372        C  0.75999617  0.95335623  0.37835808     0.98400
C373        C  0.79818389  0.10529672  0.33093692     0.93300
O374        O  0.84102422  0.12086695  0.33274837    -0.82800
O375        O  0.99363944  0.21598692  0.10407524    -0.82300
C376        C  0.87658482  0.02128157  0.08536810     0.97100
O377        O  0.91257565  0.04004339  0.10137042    -0.71400
O378        O  0.98040962  0.10065226  0.06851816    -0.75000
Al379      Al  0.95779525  0.10360588  0.10626594     1.49000
C380        C  0.01067436  0.13679641  0.05492152     0.92300
O381        O  0.92860540  0.15451670  0.03370419    -0.81200
O382        O  0.86520637  0.15119663  0.10737071    -0.74800
Al383      Al  0.95724321  0.18252278  0.06910316     1.90100
O384        O  0.85615975  0.10923788  0.05061431    -0.73900
O385        O  0.86298323  0.08137360  0.13500517    -0.73700
O386        O  0.85460944  0.04185518  0.07894959    -0.79400
O387        O  0.93688607  0.10457060  0.14492544    -0.77600
O388        O  0.92608533  0.12805574  0.08974934    -1.13700
O389        O  0.01185437  0.16159209  0.11518531    -0.72900
C390        C  0.02140144  0.20343075  0.11600171     0.97800
C391        C  0.88573993  0.12740840  0.02908090     0.94200
Al392      Al  0.86409741  0.09825482  0.09298483     1.55600
O393        O  0.00962025  0.17437465  0.05666534    -0.77500
C394        C  0.89572598  0.09143164  0.15375389     0.98400
C395        C  0.86889142  0.17991299  0.08755658     0.93300
O396        O  0.90773721  0.20092036  0.07318931    -0.82800
C397        C  0.87047435  0.09636193  0.43674574    -0.06000
C398        C  0.84840768  0.06029836  0.45842103    -0.33400
C399        C  0.84806877  0.07005750  0.48873364     0.35900
C400        C  0.87123521  0.11637466  0.49777851    -0.06300
C401        C  0.89058948  0.15244349  0.47594817    -0.33300
C402        C  0.88980889  0.14271879  0.44553390     0.35800
H403        H  0.83241874  0.02438357  0.45190898     0.16100
O404        O  0.82930501  0.03417118  0.50955665    -0.60800
H405        H  0.90865125  0.18832588  0.48270497     0.16100
O406        O  0.91042997  0.17877741  0.42489927    -0.60900
H407        H  0.94325358  0.18540539  0.42284521     0.43100
H408        H  0.79763989  0.02924869  0.51417275     0.43100
C409        C  0.87303096  0.08655518  0.24932992    -0.06000
C410        C  0.83618175  0.07672226  0.22926816    -0.33400
C411        C  0.84267774  0.07766588  0.19829141     0.35900
C412        C  0.88684371  0.08881637  0.18653965    -0.06300
C413        C  0.92394908  0.09929579  0.20660664    -0.33300
C414        C  0.91735706  0.09832940  0.23768182     0.35800
H415        H  0.80162594  0.06754310  0.23759763     0.16100
O416        O  0.80561107  0.06810607  0.17984804    -0.60800
H417        H  0.95837637  0.10804217  0.19827016     0.16100
O418        O  0.95379054  0.10654748  0.25636022    -0.60900
H419        H  0.97157239  0.14071416  0.25852694     0.43100
H420        H  0.78906695  0.03394229  0.17751014     0.43100
C421        C  0.84325127  0.88973804  0.05188561    -0.06000
C422        C  0.80661725  0.89651486  0.06179809    -0.33400
C423        C  0.81624909  0.93999674  0.07194163     0.35900
C424        C  0.86287566  0.97665554  0.07204939    -0.06300
C425        C  0.89798016  0.97147203  0.05828245    -0.33300
C426        C  0.88837165  0.92860111  0.04772354     0.35800
H427        H  0.77162655  0.86732481  0.06461507     0.16100
O428        O  0.78100796  0.94497914  0.08446740    -0.60800
H429        H  0.93357034  0.00032291  0.05690367     0.16100
O430        O  0.92425459  0.92385193  0.03595182    -0.60900
H431        H  0.94740976  0.93191926  0.05230817     0.43100
H432        H  0.76447306  0.94960565  0.06723671     0.43100
C433        C  0.85516823  0.85093359  0.31341017    -0.06000
C434        C  0.80706153  0.83580221  0.31426720    -0.33400
C435        C  0.79128519  0.86705268  0.30748175     0.35900
C436        C  0.82391397  0.91372924  0.30053237    -0.06300
C437        C  0.87007486  0.92555071  0.29340825    -0.33300
C438        C  0.88626373  0.89488719  0.30077233     0.35800
H439        H  0.78225726  0.80103216  0.32241002     0.16100
O440        O  0.74492755  0.85320778  0.31151819    -0.60800
H441        H  0.89516532  0.96096441  0.28668114     0.16100
O442        O  0.93269275  0.90871980  0.29655630    -0.60900
H443        H  0.94783885  0.92118805  0.31602133     0.43100
H444        H  0.73063127  0.84329835  0.29150417     0.43100
C445        C  0.87400271  0.75279770  0.42877456    -0.06000
C446        C  0.91042478  0.76474701  0.44957919    -0.33400
C447        C  0.90071007  0.75434308  0.48017486     0.35900
C448        C  0.85408851  0.73172558  0.49041878    -0.06300
C449        C  0.81759418  0.71848810  0.46973151    -0.33300
C450        C  0.82714135  0.72835182  0.43908298     0.35800
H451        H  0.94675080  0.78292741  0.44222837     0.16100
O452        O  0.93705590  0.76886133  0.50001062    -0.60800
H453        H  0.78150984  0.70184094  0.47755704     0.16100
O454        O  0.79050398  0.71608895  0.41974379    -0.60900
H455        H  0.78019300  0.68353630  0.41453266     0.43100
H456        H  0.94455866  0.80060131  0.50546234     0.43100
C457        C  0.87752912  0.72430289  0.24145706    -0.06000
C458        C  0.90432379  0.71463798  0.22143403    -0.33400
C459        C  0.90233234  0.72125835  0.19057216     0.35900
C460        C  0.87355204  0.73823585  0.17945233    -0.06300
C461        C  0.84444954  0.74496833  0.19938230    -0.33300
C462        C  0.84636692  0.73822273  0.23025174     0.35800
H463        H  0.92869345  0.70411582  0.22989446     0.16100
O464        O  0.93156244  0.71488552  0.17185510    -0.60800
H465        H  0.82137253  0.75721025  0.19109554     0.16100
O466        O  0.82029048  0.74855689  0.24927342    -0.60900
H467        H  0.83983479  0.78228650  0.25285021     0.43100
H468        H  0.91369665  0.68170529  0.16651323     0.43100
C469        C  0.11529633  0.10923591  0.06438454    -0.06000
C470        C  0.07639293  0.07825586  0.04784871    -0.33400
C471        C  0.04553970  0.09187333  0.03630778     0.35900
C472        C  0.05179269  0.13560102  0.04357132    -0.06300
C473        C  0.09535222  0.16926667  0.05443990    -0.33300
C474        C  0.12703727  0.15609762  0.06541868     0.35800
H475        H  0.06879858  0.04290820  0.04516421     0.16100
O476        O  0.00505823  0.05958121  0.02296088    -0.60800
H477        H  0.10171337  0.20368441  0.05885068     0.16100
O478        O  0.16679030  0.18802343  0.07964217    -0.60900
H479        H  0.15701802  0.18745983  0.10073956     0.43100
H480        H  0.01119861  0.06575524  0.00110869     0.43100
C481        C  0.08659784  0.91063916  0.04949725    -0.06000
C482        C  0.08001261  0.86965070  0.06383431    -0.33400
C483        C  0.03516445  0.83515703  0.07310561     0.35900
C484        C  0.99684722  0.84152841  0.06705127    -0.06300
C485        C  0.00242121  0.87760983  0.04767066    -0.33300
C486        C  0.04715265  0.91229803  0.03876774     0.35800
H487        H  0.10970693  0.86686953  0.07106484     0.16100
O488        O  0.02983685  0.79816261  0.09050368    -0.60800
H489        H  0.97216874  0.88003460  0.04072081     0.16100
O490        O  0.05248922  0.94993969  0.02204900    -0.60900
H491        H  0.03923971  0.96505416  0.03451146     0.43100
H492        H  0.02413557  0.77362486  0.07612283     0.43100
C493        C  0.10365385  0.96848318  0.32590568    -0.06000
C494        C  0.06977238  0.96413313  0.30503134    -0.33400
C495        C  0.04703495  0.92454591  0.28766534     0.35900
C496        C  0.05370663  0.88654881  0.29414217    -0.06300
C497        C  0.09463886  0.89530619  0.30898824    -0.33300
C498        C  0.11872095  0.93524120  0.32592119     0.35800
H499        H  0.06019516  0.99074889  0.30262692     0.16100
O500        O  0.01226683  0.91969880  0.26853563    -0.60800
H501        H  0.10374785  0.86842887  0.31117735     0.16100
O502        O  0.15518019  0.94007255  0.34344759    -0.60900
H503        H  0.14049475  0.92399188  0.36275911     0.43100
H504        H  0.02784703  0.93032145  0.24862723     0.43100
C505        C  0.22478673  0.09224033  0.43705094    -0.06000
C506        C  0.20480673  0.10969778  0.45715406    -0.33400
C507        C  0.21477348  0.11204241  0.48776467     0.35900
C508        C  0.24454307  0.09618128  0.49869693    -0.06300
C509        C  0.26671357  0.08134257  0.47843137    -0.33300
C510        C  0.25795286  0.08041583  0.44766048     0.35800
H511        H  0.18005805  0.12007105  0.44926754     0.16100
O512        O  0.19202213  0.12592406  0.50709139    -0.60800
H513        H  0.28875228  0.06783059  0.48666135     0.16100
O514        O  0.27884999  0.06412730  0.42863101    -0.60900
H515        H  0.30972708  0.09148685  0.42340114     0.43100
H516        H  0.16147754  0.09762232  0.51150607     0.43100
C517        C  0.21097524  0.08545009  0.24897651    -0.06000
C518        C  0.23620485  0.12357779  0.22900074    -0.33400
C519        C  0.22909087  0.11972835  0.19812893     0.35900
C520        C  0.19650210  0.07685533  0.18611879    -0.06300
C521        C  0.17230475  0.03808722  0.20594652    -0.33300
C522        C  0.17946595  0.04210566  0.23708204     0.35800
H523        H  0.26096945  0.15743981  0.23736485     0.16100
O524        O  0.25434191  0.15838277  0.18003107    -0.60800
H525        H  0.14760405  0.00437369  0.19735044     0.16100
O526        O  0.15377863  0.00411350  0.25558419    -0.60900
H527        H  0.17311775  0.98894614  0.25793187     0.43100
H528        H  0.23503610  0.17371192  0.17866519     0.43100
C529        C  0.07821489  0.12387023  0.29786564    -0.06000
C530        C  0.04420492  0.07684705  0.29574608    -0.33400
C531        C  0.00138333  0.05930878  0.31108282     0.35900
C532        C  0.99021602  0.09005773  0.32525859    -0.06300
C533        C  0.01983307  0.13819651  0.32002441    -0.33300
C534        C  0.06297015  0.15498898  0.30528273     0.35800
H535        H  0.05448090  0.05271280  0.28775220     0.16100
O536        O  0.97242674  0.01224487  0.31359061    -0.60800
H537        H  0.01064448  0.16300556  0.32844044     0.16100
O538        O  0.09303185  0.20189176  0.30284672    -0.60900
H539        H  0.09370298  0.20980646  0.28119617     0.43100
H540        H  0.98258253  0.00257338  0.33204909     0.43100
C541        C  0.06196163  0.79195741  0.37996032    -0.06000
C542        C  0.10256809  0.81224131  0.36181681    -0.33400
C543        C  0.14805607  0.83461254  0.37411022     0.35900
C544        C  0.15451111  0.83323979  0.40543173    -0.06300
C545        C  0.11352282  0.81240245  0.42365307    -0.33300
C546        C  0.06806215  0.79336423  0.41128880     0.35800
H547        H  0.09889651  0.81102203  0.33775643     0.16100
O548        O  0.18584746  0.85542360  0.35495464    -0.60800
H549        H  0.11671747  0.80993921  0.44772761     0.16100
O550        O  0.02983251  0.77608369  0.43011008    -0.60900
H551        H  0.01802547  0.74219799  0.43171647     0.43100
H552        H  0.19754269  0.88919119  0.35615956     0.43100
C553        C  0.11968047  0.80563364  0.15055128    -0.06000
C554        C  0.13771205  0.82143235  0.12125625    -0.33400
C555        C  0.16520260  0.86905916  0.11395912     0.35900
C556        C  0.16821099  0.90263193  0.13381648    -0.06300
C557        C  0.14418463  0.88678604  0.16155468    -0.33300
C558        C  0.12230235  0.83926326  0.17050697     0.35800
H559        H  0.13780845  0.79702006  0.10557386     0.16100
O560        O  0.18803092  0.88236469  0.08674289    -0.60800
H561        H  0.14391130  0.91159244  0.17677956     0.16100
O562        O  0.10655057  0.82640544  0.19951051    -0.60900
H563        H  0.13483914  0.83352017  0.21138479     0.43100
H564        H  0.21943692  0.88599890  0.09049799     0.43100
C565        C  0.20625226  0.76391495  0.26664451    -0.06000
C566        C  0.23189180  0.80990146  0.27568620    -0.33400
C567        C  0.23548833  0.82010200  0.30612020     0.35900
C568        C  0.21150616  0.78414943  0.32787314    -0.06300
C569        C  0.18225698  0.73870932  0.31851147    -0.33300
C570        C  0.18009400  0.72832498  0.28809383     0.35800
H571        H  0.25161118  0.83760453  0.25934203     0.16100
O572        O  0.26358821  0.86520967  0.31450351    -0.60800
H573        H  0.16371983  0.71075503  0.33490923     0.16100
O574        O  0.15254673  0.68328013  0.27951089    -0.60900
H575        H  0.17166199  0.66814721  0.28325750     0.43100
H576        H  0.29616355  0.87089011  0.31308957     0.43100
C577        C  0.22052333  0.75103589  0.01666100    -0.06000
C578        C  0.25847650  0.76585595  0.03664037    -0.33400
C579        C  0.25222753  0.76715470  0.06756083     0.35900
C580        C  0.20751421  0.75384078  0.07919393    -0.06300
C581        C  0.16986443  0.74028819  0.05916195    -0.33300
C582        C  0.17597290  0.73870255  0.02830383     0.35800
H583        H  0.29337801  0.77623250  0.02838384     0.16100
O584        O  0.28976987  0.77998392  0.08615902    -0.60800
H585        H  0.13497441  0.72984499  0.06748911     0.16100
O586        O  0.13781279  0.72393380  0.00997473    -0.60900
H587        H  0.13654688  0.75237612  0.00430467     0.43100
H588        H  0.29019787  0.75084412  0.09081808     0.43100
C589        C  0.18292016  0.51123691  0.15294724    -0.06000
C590        C  0.21401052  0.55006451  0.13543570    -0.33400
C591        C  0.20075937  0.58202941  0.12519089     0.35900
C592        C  0.15747906  0.57679055  0.13431852    -0.06300
C593        C  0.12396954  0.53410473  0.14730233    -0.33300
C594        C  0.13660256  0.50151397  0.15706179     0.35800
H595        H  0.24905998  0.55645073  0.13066469     0.16100
O596        O  0.23276603  0.62182178  0.11023400    -0.60800
H597        H  0.09015169  0.52878121  0.15384390     0.16100
O598        O  0.10517374  0.46307714  0.17349220    -0.60900
H599        H  0.08858112  0.43859923  0.15858212     0.43100
H600        H  0.23453213  0.61214075  0.08964215     0.43100
C601        C  0.06835438  0.23611518  0.12864038    -0.06000
C602        C  0.07798183  0.22961743  0.15857196    -0.33400
C603        C  0.12410334  0.25273371  0.16972155     0.35900
C604        C  0.16266004  0.28141375  0.15067456    -0.06300
C605        C  0.15332087  0.28322749  0.11995594    -0.33300
C606        C  0.10687759  0.26320676  0.10932322     0.35800
H607        H  0.04939758  0.20672662  0.17352461     0.16100
O608        O  0.13098722  0.24894912  0.19977444    -0.60800
H609        H  0.18186866  0.30387767  0.10451484     0.16100
O610        O  0.09955570  0.27013930  0.07982658    -0.60900
H611        H  0.09880691  0.29964208  0.07920611     0.43100
H612        H  0.13490829  0.22127402  0.20195168     0.43100
C613        C  0.12194676  0.27592332  0.40600982    -0.06000
C614        C  0.13790581  0.25339763  0.42629075    -0.33400
C615        C  0.15864165  0.22747094  0.41645054     0.35900
C616        C  0.16649014  0.22504452  0.38561429    -0.06300
C617        C  0.14904507  0.24594118  0.36529400    -0.33300
C618        C  0.12538483  0.26924652  0.37510861     0.35800
H619        H  0.13647919  0.25790945  0.45017546     0.16100
O620        O  0.17349657  0.20673882  0.43736896    -0.60800
H621        H  0.15311191  0.24344656  0.34150094     0.16100
O622        O  0.10834490  0.28768818  0.35408623    -0.60900
H623        H  0.07415370  0.26544386  0.35338125     0.43100
H624        H  0.14494397  0.17760675  0.44361834     0.43100
C625        C  0.21301239  0.39227449  0.07536214    -0.06000
C626        C  0.17994064  0.40334797  0.06440315    -0.33400
C627        C  0.17753367  0.41060227  0.03368205     0.35900
C628        C  0.20793048  0.40582383  0.01352730    -0.06300
C629        C  0.23748207  0.38981374  0.02438842    -0.33300
C630        C  0.24029712  0.38319982  0.05519092     0.35800
H631        H  0.15839631  0.40976516  0.07974327     0.16100
O632        O  0.14625561  0.42371104  0.02367621    -0.60800
H633        H  0.26018239  0.38482565  0.00920955     0.16100
O634        O  0.27151473  0.37011737  0.06550126    -0.60900
H635        H  0.25271860  0.33595347  0.06871956     0.43100
H636        H  0.16123663  0.45721787  0.02808832     0.43100
C637        C  0.19836444  0.40119560  0.26385689    -0.06000
C638        C  0.23202832  0.40126536  0.28353502    -0.33400
C639        C  0.22276306  0.39291304  0.31428969     0.35900
C640        C  0.17962647  0.38508057  0.32564766    -0.06300
C641        C  0.14464441  0.38119043  0.30568308    -0.33300
C642        C  0.15375062  0.38922852  0.27494866     0.35800
H643        H  0.26635335  0.40963769  0.27516917     0.16100
O644        O  0.25762899  0.39712643  0.33317658    -0.60800
H645        H  0.11096635  0.37463615  0.31417528     0.16100
O646        O  0.11999320  0.38841512  0.25636260    -0.60900
H647        H  0.12420675  0.42013376  0.25692218     0.43100
H648        H  0.25121681  0.36494356  0.33700447     0.43100
C649        C  0.18031927  0.55370090  0.38033270    -0.06000
C650        C  0.22643542  0.59084985  0.37701446    -0.33400
C651        C  0.23832434  0.63440289  0.38752462     0.35900
C652        C  0.20334305  0.64200697  0.39950815    -0.06300
C653        C  0.15607297  0.60766880  0.39690298    -0.33300
C654        C  0.14436498  0.56351386  0.38700777     0.35800
H655        H  0.25443615  0.58460023  0.37036169     0.16100
O656        O  0.28443038  0.66880099  0.38697925    -0.60800
H657        H  0.12851286  0.61405980  0.40441108     0.16100
O658        O  0.09833966  0.52918252  0.38734559    -0.60900
H659        H  0.08924295  0.52397479  0.36595230     0.43100
H660        H  0.29779901  0.66425044  0.40588922     0.43100
C661        C  0.44818398  0.77645613  0.39514014    -0.06000
C662        C  0.46280624  0.82396266  0.39587387    -0.33400
C663        C  0.43393469  0.84010451  0.38409914     0.35900
C664        C  0.38974435  0.80783782  0.37297379    -0.06300
C665        C  0.38234640  0.76425815  0.36465473    -0.33300
C666        C  0.40978401  0.74735610  0.37741853     0.35800
H667        H  0.49446794  0.84763892  0.40755369     0.16100
O668        O  0.44534357  0.88514810  0.38856855    -0.60800
H669        H  0.34990432  0.74005897  0.35392363     0.16100
O670        O  0.39775033  0.70202027  0.37349304    -0.60900
H671        H  0.37693884  0.68451755  0.39074517     0.43100
H672        H  0.44944237  0.89941782  0.36820703     0.43100
C673        C  0.67980437  0.80907044  0.41159585    -0.06000
C674        C  0.68093223  0.82137728  0.38101609    -0.33400
C675        C  0.70053138  0.86825611  0.37118510     0.35900
C676        C  0.72739794  0.90486278  0.39070752    -0.06300
C677        C  0.73079117  0.89250354  0.42075504    -0.33300
C678        C  0.70562110  0.84574925  0.43141927     0.35800
H679        H  0.66274316  0.79459885  0.36489832     0.16100
O680        O  0.69322141  0.87785666  0.34224644    -0.60800
H681        H  0.75216003  0.91937669  0.43630378     0.16100
O682        O  0.70644548  0.83615169  0.46143261    -0.60900
H683        H  0.68393918  0.84371202  0.47099416     0.43100
H684        H  0.66068907  0.87243092  0.34205820     0.43100
C685        C  0.41626058  0.57655916  0.37946895    -0.06000
C686        C  0.41020566  0.53392634  0.39042294    -0.33400
C687        C  0.36589071  0.49909301  0.40021199     0.35900
C688        C  0.32777690  0.50679949  0.39759864    -0.06300
C689        C  0.33239015  0.54485907  0.38070395    -0.33300
C690        C  0.37644966  0.57903523  0.37058245     0.35800
H691        H  0.44015426  0.52986598  0.39494201     0.16100
O692        O  0.36095848  0.45987353  0.41455242    -0.60800
H693        H  0.30226003  0.54918059  0.37669735     0.16100
O694        O  0.38105250  0.61781792  0.35591252    -0.60900
H695        H  0.37449993  0.60919819  0.33458967     0.43100
H696        H  0.36386973  0.46676535  0.43621317     0.43100
C697        C  0.37964187  0.55961534  0.13585852    -0.06000
C698        C  0.36891721  0.59534799  0.13165840    -0.33400
C699        C  0.39477181  0.63703123  0.14632637     0.35900
C700        C  0.43477903  0.64540373  0.16253843    -0.06300
C701        C  0.45072859  0.61321875  0.16108688    -0.33300
C702        C  0.42359222  0.57062891  0.14747370     0.35800
H703        H  0.33570176  0.58787121  0.12188735     0.16100
O704        O  0.37824715  0.66742823  0.14677769    -0.60800
H705        H  0.48293127  0.61979841  0.17195095     0.16100
O706        O  0.43704010  0.53777133  0.14970830    -0.60900
H707        H  0.45826181  0.54412954  0.13228315     0.43100
H708        H  0.36239002  0.66164557  0.16658481     0.43100
C709        C  0.73582072  0.79425943  0.12832625    -0.06000
C710        C  0.71121374  0.80774204  0.10847589    -0.33400
C711        C  0.68963967  0.83295034  0.11814427     0.35900
C712        C  0.68853579  0.84247695  0.14886816    -0.06300
C713        C  0.71527386  0.83089659  0.16847623    -0.33300
C714        C  0.73954691  0.80836025  0.15835561     0.35800
H715        H  0.70932374  0.79931661  0.08501564     0.16100
O716        O  0.66429336  0.84280441  0.09777317    -0.60800
H717        H  0.71394911  0.83561768  0.19233828     0.16100
O718        O  0.76467062  0.79780855  0.17851983    -0.60900
H719        H  0.79675297  0.82514231  0.17791047     0.43100
H720        H  0.68202788  0.87702637  0.09475936     0.43100
C721        C  0.56485682  0.76580040  0.26885661    -0.06000
C722        C  0.58745000  0.74196008  0.27932749    -0.33400
C723        C  0.59336159  0.73800224  0.31018413     0.35900
C724        C  0.57692251  0.75838975  0.33082877    -0.06300
C725        C  0.55866704  0.78601554  0.32017243    -0.33300
C726        C  0.55254123  0.78978202  0.28941986     0.35800
H727        H  0.59781845  0.72400615  0.26380967     0.16100
O728        O  0.61293777  0.71204786  0.32007717    -0.60800
H729        H  0.54610712  0.80204147  0.33576166     0.16100
O730        O  0.53259246  0.81546578  0.27976568    -0.60900
H731        H  0.55942592  0.84697417  0.27539368     0.43100
H732        H  0.64694718  0.73449798  0.32171847     0.43100
C733        C  0.54165902  0.75878141  0.08070521    -0.06000
C734        C  0.56616069  0.79590134  0.05989325    -0.33400
C735        C  0.55873029  0.79024425  0.02911177     0.35900
C736        C  0.52567404  0.74674353  0.01807996    -0.06300
C737        C  0.50081803  0.70943907  0.03880713    -0.33300
C738        C  0.50866743  0.71515281  0.06981930     0.35800
H739        H  0.59110682  0.83024561  0.06741233     0.16100
O740        O  0.58347362  0.82796377  0.01017111    -0.60800
H741        H  0.47526936  0.67546578  0.03100160     0.16100
O742        O  0.48231550  0.67854102  0.08918312    -0.60900
H743        H  0.50007841  0.66170072  0.09146071     0.43100
H744        H  0.61402880  0.82947286  0.00683234     0.43100
C745        C  0.42066344  0.80693421  0.13122756    -0.06000
C746        C  0.38721999  0.76072299  0.12538249    -0.33400
C747        C  0.34220697  0.74066078  0.13827142     0.35900
C748        C  0.33014436  0.76797144  0.15579881    -0.06300
C749        C  0.36013155  0.81645533  0.15483573    -0.33300
C750        C  0.40432268  0.83602118  0.14128601     0.35800
H751        H  0.39823651  0.73866922  0.11479503     0.16100
O752        O  0.31053116  0.69504356  0.13312671    -0.60800
H753        H  0.35032481  0.83927161  0.16568781     0.16100
O754        O  0.43411871  0.88280838  0.14291228    -0.60900
H755        H  0.43736233  0.89503929  0.12201741     0.43100
H756        H  0.30627443  0.67810588  0.15248716     0.43100
C757        C  0.83787858  0.56618510  0.04260858    -0.06000
C758        C  0.82472180  0.56238849  0.07302187    -0.33400
C759        C  0.80276071  0.58633100  0.08429739     0.35900
C760        C  0.79099097  0.61362402  0.06510074    -0.06300
C761        C  0.80060951  0.61422349  0.03421818    -0.33300
C762        C  0.82507391  0.59237980  0.02320009     0.35800
H763        H  0.83209563  0.54108963  0.08840288     0.16100
O764        O  0.79347911  0.58340845  0.11450146    -0.60800
H765        H  0.79233638  0.63465612  0.01872065     0.16100
O766        O  0.83533163  0.59639907  0.49303563    -0.60900
H767        H  0.86533857  0.62602417  0.49048317     0.43100
H768        H  0.82427523  0.60312006  0.12401902     0.43100
C769        C  0.07088038  0.46327131  0.45974578    -0.06000
C770        C  0.04194457  0.46792080  0.43856513    -0.33400
C771        C  0.01667192  0.49076795  0.44514943     0.35900
C772        C  0.01638411  0.50660027  0.47438630    -0.06300
C773        C  0.04725253  0.50386745  0.49526647    -0.33300
C774        C  0.07554610  0.48429922  0.48776192     0.35800
H775        H  0.03938976  0.45434042  0.41636182     0.16100
O776        O  0.98835570  0.49356033  0.42351046    -0.60800
H777        H  0.04694969  0.51379167  0.51819147     0.16100
O778        O  0.10566471  0.48354546  0.50872744    -0.60900
H779        H  0.13479373  0.51397940  0.50623057     0.43100
H780        H  0.96728236  0.46126554  0.41716795     0.43100
C781        C  0.78832834  0.14049032  0.31662559    -0.06000
C782        C  0.80732905  0.15364215  0.28727535    -0.33400
C783        C  0.83202998  0.20041349  0.27737594     0.35900
C784        C  0.83231070  0.23533852  0.29463582    -0.06300
C785        C  0.80853822  0.22189799  0.32259427    -0.33300
C786        C  0.78881375  0.17565256  0.33413518     0.35800
H787        H  0.80946964  0.12833791  0.27352710     0.16100
O788        O  0.85587142  0.21158537  0.25053129    -0.60800
H789        H  0.80676427  0.24774550  0.33601234     0.16100
O790        O  0.77360643  0.16602345  0.36338779    -0.60900
H791        H  0.74104816  0.16051656  0.36300702     0.43100
H792        H  0.88778492  0.21752146  0.25556904     0.43100
C793        C  0.06611511  0.57222787  0.21995564    -0.06000
C794        C  0.06898652  0.55801857  0.24960109    -0.33400
C795        C  0.04181228  0.51094651  0.25933861     0.35900
C796        C  0.01433474  0.47594818  0.23883674    -0.06300
C797        C  0.01589603  0.48989929  0.20863705    -0.33300
C798        C  0.03802822  0.53717938  0.19973142     0.35800
H799        H  0.09142330  0.58364507  0.26551694     0.16100
O800        O  0.04263370  0.49936251  0.28897716    -0.60800
H801        H  0.99647358  0.46426966  0.19205392     0.16100
O802        O  0.03263976  0.54859882  0.17078568    -0.60900
H803        H  0.00082608  0.54501435  0.17019011     0.43100
H804        H  0.02044128  0.50662485  0.29926981     0.43100
C805        C  0.85166812  0.40910306  0.34131667    -0.06000
C806        C  0.88021357  0.45411482  0.35138370    -0.33400
C807        C  0.88892739  0.46274176  0.38187607     0.35900
C808        C  0.86894740  0.42565535  0.40352297    -0.06300
C809        C  0.83946737  0.38051823  0.39355509    -0.33300
C810        C  0.83039751  0.37207463  0.36285045     0.35800
H811        H  0.89649477  0.48316512  0.33549324     0.16100
O812        O  0.91642361  0.50802983  0.39016443    -0.60800
H813        H  0.82296446  0.35168009  0.40958726     0.16100
O814        O  0.80168889  0.32725512  0.35423753    -0.60900
H815        H  0.76955020  0.32287645  0.35462686     0.43100
H816        H  0.94811179  0.51829485  0.38179650     0.43100
C817        C  0.88839465  0.42406600  0.09206906    -0.06000
C818        C  0.87747525  0.44930411  0.11231441    -0.33400
C819        C  0.88702839  0.44929050  0.14306353     0.35900
C820        C  0.90685645  0.42290287  0.15414647    -0.06300
C821        C  0.92023187  0.39992527  0.13359303    -0.33300
C822        C  0.91190264  0.40103472  0.10277255     0.35800
H823        H  0.86032378  0.46817448  0.10435244     0.16100
O824        O  0.87394538  0.47257602  0.16226001    -0.60800
H825        H  0.93533151  0.37920819  0.14166635     0.16100
O826        O  0.92333460  0.37628784  0.08373463    -0.60900
H827        H  0.95640656  0.39772015  0.07778466     0.43100
H828        H  0.84066431  0.45046628  0.16741434     0.43100
C829        C  0.73223082  0.57022282  0.29209834    -0.06000
C830        C  0.77411055  0.58444811  0.27591572    -0.33400
C831        C  0.81858246  0.60733304  0.28955746     0.35900
C832        C  0.82259356  0.61824625  0.32021347    -0.06300
C833        C  0.78024455  0.60201292  0.33674139    -0.33300
C834        C  0.73580097  0.57784561  0.32310276     0.35800
H835        H  0.77217531  0.57731557  0.25242297     0.16100
O836        O  0.85785111  0.62097406  0.27220007    -0.60800
H837        H  0.78159470  0.60974289  0.36030805     0.16100
O838        O  0.69604755  0.56227486  0.34029862    -0.60900
H839        H  0.68814321  0.53062790  0.34732958     0.43100
H840        H  0.86537728  0.59563173  0.27467830     0.43100
C841        C  0.49020537  0.50649535  0.23398961    -0.06000
C842        C  0.47881648  0.49367050  0.20392213    -0.33400
C843        C  0.43185978  0.46750921  0.19455732     0.35900
C844        C  0.39474359  0.45993191  0.21382180    -0.06300
C845        C  0.40612854  0.47691175  0.24311298    -0.33300
C846        C  0.45278461  0.49795310  0.25354777     0.35800
H847        H  0.50627295  0.50078588  0.18800261     0.16100
O848        O  0.42277183  0.45099337  0.16598733    -0.60800
H849        H  0.37854085  0.47311213  0.25814731     0.16100
O850        O  0.46130810  0.50917332  0.28316976    -0.60900
H851        H  0.47305271  0.54305738  0.28355544     0.43100
H852        H  0.42010033  0.41990646  0.16759414     0.43100
C853        C  0.71651477  0.46908630  0.19862429    -0.06000
C854        C  0.70662879  0.42409954  0.19175664    -0.33400
C855        C  0.73516243  0.40740580  0.20313194     0.35900
C856        C  0.77649027  0.43777903  0.21815851    -0.06300
C857        C  0.79243735  0.48573654  0.21672350    -0.33300
C858        C  0.76284667  0.50164615  0.20575187     0.35800
H859        H  0.67280278  0.39976399  0.18277427     0.16100
O860        O  0.72183779  0.36143265  0.20021108    -0.60800
H861        H  0.82634969  0.51034783  0.22562112     0.16100
O862        O  0.77742620  0.54809862  0.20541718    -0.60900
H863        H  0.78658508  0.55873279  0.18429603     0.43100
H864        H  0.70130264  0.34518749  0.21781393     0.43100
C865        C  0.40587506  0.23939098  0.05342791    -0.06000
C866        C  0.38846826  0.20001644  0.03537560    -0.33400
C867        C  0.36300615  0.15423849  0.04762060     0.35900
C868        C  0.35154498  0.14623833  0.07855818    -0.06300
C869        C  0.37040222  0.18577610  0.09677333    -0.33300
C870        C  0.39799030  0.23145809  0.08466125     0.35800
H871        H  0.39577179  0.20497596  0.51161552     0.16100
O872        O  0.34725833  0.11774843  0.02863709    -0.60800
H873        H  0.36234969  0.18135950  0.12057386     0.16100
O874        O  0.41618901  0.26817607  0.10360503    -0.60900
H875        H  0.39266987  0.27859280  0.10418383     0.43100
H876        H  0.36787546  0.10397743  0.53288252     0.43100
C877        C  0.66510997  0.43672761  0.98231503    -0.06000
C878        C  0.67507097  0.40858462  0.96426853    -0.33400
C879        C  0.71711250  0.42754061  0.44826610     0.35900
C880        C  0.75150549  0.47376386  0.45325629    -0.06300
C881        C  0.73665230  0.50350380  0.46401419    -0.33300
C882        C  0.69423224  0.48502941  0.47978067     0.35800
H883        H  0.65160451  0.37150497  0.96405706     0.16100
O884        O  0.72887091  0.39928503  0.43312429    -0.60800
H885        H  0.76139851  0.54022474  0.46547494     0.16100
O886        O  0.68395977  0.51500721  0.49413462    -0.60900
H887        H  0.66743714  0.52393498  0.47902799     0.43100
H888        H  0.72296495  0.40369243  0.91123240     0.43100
C889        C  0.45356583  0.47241649  0.48819192    -0.06000
C890        C  0.46266807  0.50788399  0.50855950    -0.33400
C891        C  0.48269561  0.55503327  0.49888320     0.35900
C892        C  0.49721407  0.56825772  0.46872909    -0.06300
C893        C  0.48639160  0.53285512  0.44845544    -0.33300
C894        C  0.46209788  0.48570288  0.45743542     0.35800
H895        H  0.45803238  0.49958104  0.53239359     0.16100
O896        O  0.48964040  0.58802529  0.51931069    -0.60800
H897        H  0.49704113  0.54201326  0.42524513     0.16100
O898        O  0.45434786  0.45330431  0.43634447    -0.60900
H899        H  0.42011182  0.43123795  0.43691475     0.43100
H900        H  0.52225248  0.60017876  0.52636925     0.43100
C901        C  0.54363318  0.42625834  0.09817354    -0.06000
C902        C  0.55438444  0.47085464  0.10657162    -0.33400
C903        C  0.55393388  0.48072776  0.13676400     0.35900
C904        C  0.54066932  0.44528935  0.15887297    -0.06300
C905        C  0.52611050  0.39988227  0.15038029    -0.33300
C906        C  0.52814904  0.39026964  0.12024548     0.35800
H907        H  0.56558839  0.49872775  0.08988973     0.16100
O908        O  0.56820488  0.52550156  0.14463094    -0.60800
H909        H  0.51668969  0.37259763  0.16731814     0.16100
O910        O  0.51517666  0.34570239  0.11265228    -0.60900
H911        H  0.54281160  0.34210679  0.11711778     0.43100
H912        H  0.60297754  0.54162482  0.14440302     0.43100
C913        C  0.54263940  0.42512148  0.41072931    -0.06000
C914        C  0.50450060  0.41046062  0.39099860    -0.33400
C915        C  0.51035221  0.41000109  0.36000469     0.35900
C916        C  0.55515316  0.42453111  0.34779898    -0.06300
C917        C  0.59352311  0.44016093  0.36744843    -0.33300
C918        C  0.58766737  0.44092571  0.39852903     0.35800
H919        H  0.46935430  0.39798238  0.39960932     0.16100
O920        O  0.47173242  0.39458699  0.34202973    -0.60800
H921        H  0.62839536  0.45154171  0.35876725     0.16100
O922        O  0.62584458  0.45490000  0.41672485    -0.60900
H923        H  0.63944528  0.48894699  0.41832812     0.43100
H924        H  0.45896528  0.36059793  0.34079676     0.43100
C925        C  0.40450787  0.13428951  0.29604090    -0.06000
C926        C  0.41355168  0.15705275  0.32368022    -0.33400
C927        C  0.38476392  0.17446965  0.33441831     0.35900
C928        C  0.34909095  0.17399764  0.31629614    -0.06300
C929        C  0.34444678  0.15614957  0.28725269    -0.33300
C930        C  0.36874272  0.13342255  0.27823252     0.35800
H931        H  0.44166997  0.15940584  0.33762022     0.16100
O932        O  0.38901605  0.18797995  0.36359933    -0.60800
H933        H  0.31640076  0.15328813  0.27306718     0.16100
O934        O  0.35752752  0.11086072  0.25151623    -0.60900
H935        H  0.32853100  0.08084068  0.25572962     0.43100
H936        H  0.41222553  0.22166378  0.36294848     0.43100
C937        C  0.75372540  0.24325563  0.20043508    -0.06000
C938        C  0.71645201  0.24927015  0.19048841    -0.33400
C939        C  0.67200764  0.22186780  0.20321080     0.35900
C940        C  0.66408025  0.18533532  0.22328852    -0.06300
C941        C  0.69825793  0.17195910  0.22618206    -0.33300
C942        C  0.74302403  0.20038006  0.21394970     0.35800
H943        H  0.72362241  0.28064035  0.17806741     0.16100
O944        O  0.63721647  0.23207271  0.19684094    -0.60800
H945        H  0.69133709  0.14151957  0.23961976     0.16100
O946        O  0.77749727  0.18964480  0.21956548    -0.60900
H947        H  0.78051694  0.17574848  0.20087326     0.43100
H948        H  0.64220433  0.25692161  0.21080503     0.43100
C949        C  0.51542679  0.90833053  0.21819793    -0.06000
C950        C  0.50390207  0.90670526  0.24884789    -0.33400
C951        C  0.48324415  0.93217652  0.25991801     0.35900
C952        C  0.46923929  0.95712005  0.24021218    -0.06300
C953        C  0.47734373  0.95547473  0.20930972    -0.33300
C954        C  0.50284233  0.93446080  0.19866433     0.35800
H955        H  0.51173714  0.88618322  0.26456123     0.16100
O956        O  0.47660172  0.93223424  0.29026574    -0.60800
H957        H  0.46705092  0.97362741  0.19332108     0.16100
O958        O  0.51487273  0.93938747  0.16886795    -0.60900
H959        H  0.54257113  0.97094421  0.16656604     0.43100
H960        H  0.50800063  0.95393340  0.29834505     0.43100
C961        C  0.49665302  0.22105999  0.20866944    -0.06000
C962        C  0.54067437  0.25865826  0.20042913    -0.33400
C963        C  0.55628887  0.30179062  0.21304334     0.35900
C964        C  0.52601905  0.30900550  0.23139205    -0.06300
C965        C  0.47864490  0.27449874  0.23367653    -0.33300
C966        C  0.46372486  0.23052501  0.22207749     0.35800
H967        H  0.56585482  0.25266992  0.18860581     0.16100
O968        O  0.60166744  0.33618468  0.20812156    -0.60800
H969        H  0.45400606  0.28071576  0.24597952     0.16100
O970        O  0.41855417  0.19598039  0.22709638    -0.60900
H971        H  0.40301438  0.19106714  0.20736075     0.43100
H972        H  0.62006673  0.33122922  0.22399288     0.43100
C973        C  0.82364972  0.17523445  0.07545594    -0.06000
C974        C  0.81511770  0.16998871  0.04443285    -0.33400
C975        C  0.76905674  0.14677875  0.03302726     0.35900
C976        C  0.72964002  0.13200077  0.05212428    -0.06300
C977        C  0.73834150  0.14115160  0.08292135    -0.33300
C978        C  0.78427095  0.16110762  0.09462367     0.35800
H979        H  0.84415619  0.18053122  0.02896635     0.16100
O980        O  0.76311709  0.13939876  0.00284892    -0.60800
H981        H  0.70924118  0.13180778  0.09816411     0.16100
O982        O  0.79007950  0.16502798  0.12509697    -0.60900
H983        H  0.79885971  0.19758049  0.12917779     0.43100
H984        H  0.76080871  0.10876719  0.00009971     0.43100
C985        C  0.50258376  0.25509316  0.45780055    -0.06000
C986        C  0.47141175  0.21002681  0.96797917    -0.33400
C987        C  0.48810231  0.18392855  0.98316349     0.35900
C988        C  0.53709299  0.20086905  0.98481880    -0.06300
C989        C  0.56691851  0.24095068  0.46771069    -0.33300
C990        C  0.54933486  0.26649370  0.45262661     0.35800
H991        H  0.43454155  0.19925729  0.96987923     0.16100
O992        O  0.45630742  0.14373785  0.99792659    -0.60800
H993        H  0.60415951  0.25349742  0.46712900     0.16100
O994        O  0.57997346  0.30830483  0.43911679    -0.60900
H995        H  0.58558271  0.30056861  0.41877382     0.43100
H996        H  0.45329240  0.15338326  0.01829965     0.43100
C997        C  0.40101297  0.90198282  0.46278845    -0.06000
C998        C  0.41519098  0.89299217  0.49097551    -0.33400
C999        C  0.46204251  0.91987572  0.50103676     0.35900
C1000       C  0.49717568  0.95425399  0.48209763    -0.06300
C1001       C  0.48338443  0.95878416  0.45267803    -0.33300
C1002       C  0.43609718  0.93555570  0.44378743     0.35800
H1003       H  0.38987950  0.86425004  0.00535207     0.16100
O1004       O  0.47273085  0.91339533  0.02985304    -0.60800
H1005       H  0.50842585  0.98606132  0.43791395     0.16100
O1006       O  0.42464937  0.94597295  0.41618851    -0.60900
H1007       H  0.41736024  0.97109920  0.41974115     0.43100
H1008       H  0.49061701  0.89665833  0.02858247     0.43100
C1009       C  0.53823778  0.07998628  0.09861931    -0.06000
C1010       C  0.49198083  0.05231572  0.10890858    -0.33400
C1011       C  0.48239738  0.04415290  0.13971734     0.35900
C1012       C  0.51952692  0.06211674  0.16042434    -0.06300
C1013       C  0.56581042  0.08582172  0.14998069    -0.33300
C1014       C  0.57535436  0.09559251  0.11934694     0.35800
H1015       H  0.46315359  0.03948745  0.09325807     0.16100
O1016       O  0.43664581  0.01985424  0.14953063    -0.60800
H1017       H  0.59455333  0.10013226  0.16572056     0.16100
O1018       O  0.62116823  0.12099483  0.10992430    -0.60900
H1019       H  0.63052128  0.15382484  0.11357689     0.43100
H1020       H  0.42511756  0.04237647  0.14843370     0.43100
C1021       C  0.54998150  0.09122173  0.40998320    -0.06000
C1022       C  0.53732877  0.12284720  0.39810537    -0.33400
C1023       C  0.53947102  0.13189116  0.36706494     0.35900
C1024       C  0.55404691  0.10868159  0.34715414    -0.06300
C1025       C  0.56579374  0.07651337  0.35906954    -0.33300
C1026       C  0.56375577  0.06748296  0.38992636     0.35800
H1027       H  0.52713083  0.14174294  0.41294487     0.16100
O1028       O  0.52636737  0.16289798  0.35653175    -0.60800
H1029       H  0.57664697  0.05794499  0.34441094     0.16100
O1030       O  0.57679677  0.03624160  0.40021867    -0.60900
H1031       H  0.55286116  0.00565744  0.39262546     0.43100
H1032       H  0.55482352  0.19389062  0.35807760     0.43100
C1033       C  0.71332545  0.22107855  0.45666218    -0.06000
C1034       C  0.69613864  0.25126595  0.95340178    -0.33400
C1035       C  0.71968452  0.29456369  0.96701346     0.35900
C1036       C  0.76350813  0.30877603  0.98030098    -0.06300
C1037       C  0.78572706  0.28297153  0.47538518    -0.33300
C1038       C  0.76097363  0.23932047  0.46271374     0.35800
H1039       H  0.66019094  0.23816913  0.94653592     0.16100
O1040       O  0.69805318  0.32058451  0.96912638    -0.60800
H1041       H  0.82106573  0.29442900  0.48301992     0.16100
O1042       O  0.78067194  0.21141575  0.46220560    -0.60900
H1043       H  0.78990363  0.21208990  0.44097892     0.43100
H1044       H  0.68153973  0.31160821  0.98880805     0.43100
O1045       O  0.52455482  0.06656595  0.54619886    -0.82300
C1046       C  0.68202002  0.17911708  0.97478496     0.97100
O1047       O  0.67421382  0.18782470  0.50066239    -0.71400
O1048       O  0.59872119  0.19059184  0.50560949    -0.75000
Al1049     Al  0.62495186  0.15776800  0.52748196     1.49000
C1050       C  0.55555970  0.17586634  0.50259585     0.92300
O1051       O  0.53468284  0.09929464  0.96221571    -0.81200
O1052       O  0.57566707  0.01596050  0.99918573    -0.74800
Al1053     Al  0.53037913  0.08353278  0.00489329     1.90100
O1054       O  0.58104478  0.07088091  0.95153301    -0.70300
O1055       O  0.66775044  0.09218852  0.01550719    -0.73700
O1056       O  0.66183557  0.13863486  0.96491027    -0.79400
O1057       O  0.65797381  0.13378835  0.54965692    -0.77600
O1058       O  0.59223059  0.10703424  0.50618599    -1.13700
O1059       O  0.58052313  0.13559074  0.56004236    -0.72900
C1060       C  0.54805221  0.09463494  0.56657010     0.97800
C1061       C  0.55473664  0.08658362  0.94310202     0.94200
Al1062     Al  0.61948586  0.08116469  0.98522546     1.55600
O1063       O  0.52765845  0.13717943  0.51386657    -0.77500
C1064       C  0.68158037  0.11691757  0.53888702     0.98400
C1065       C  0.53151768  0.99920874  0.99494455     0.93300
O1066       O  0.51425540  0.02487397  0.99612735    -0.82800
O1067       O  0.42580719  0.08174266  0.77117790    -0.82300
C1068       C  0.62010569  0.15950778  0.74013560     0.97100
O1069       O  0.60191139  0.18047317  0.75243177    -0.71400
O1070       O  0.53530740  0.18229718  0.72591870    -0.75000
Al1071     Al  0.53930222  0.16148554  0.76443978     1.49000
C1072       C  0.49710084  0.17789489  0.71734299     0.92300
O1073       O  0.48324991  0.08115557  0.69739650    -0.81200
O1074       O  0.48824730  0.02021733  0.77127340    -0.74800
Al1075     Al  0.45627824  0.08000071  0.73400015     1.90100
O1076       O  0.53068588  0.05512370  0.71297249    -0.73900
O1077       O  0.55773493  0.08628392  0.79697485    -0.73700
O1078       O  0.59979630  0.11642386  0.74054903    -0.79400
O1079       O  0.54646528  0.14541038  0.80373545    -0.77600
O1080       O  0.51291234  0.10432754  0.75183080    -1.13700
O1081       O  0.48067991  0.15492476  0.77894728    -0.72900
C1082       C  0.43880413  0.12167147  0.78257742     0.97800
C1083       C  0.51081186  0.06597475  0.69201306     0.94200
Al1084     Al  0.54194967  0.07167742  0.75545384     1.55600
O1085       O  0.45997870  0.13933744  0.72193911    -0.77500
C1086       C  0.55334117  0.11384080  0.81423032     0.98400
C1087       C  0.46112315  0.99527463  0.75167957     0.93300
O1088       O  0.43943075  0.01240494  0.73739845    -0.82800
O1089       O  0.54249105  0.44166841  0.54608602    -0.82300
C1090       C  0.49929021  0.29000739  0.97459153     0.97100
O1091       O  0.51794345  0.29815485  0.49979081    -0.71400
O1092       O  0.59506514  0.37243727  0.50493452    -0.75000
Al1093     Al  0.53625408  0.34420927  0.52724202     1.49000
C1094       C  0.62234340  0.41545489  0.50200293     0.92300
O1095       O  0.56589281  0.43748832  0.96273310    -0.81200
O1096       O  0.44160256  0.39367800  0.00129928    -0.74800
Al1097     Al  0.55444015  0.43900509  0.00500527     1.90100
O1098       O  0.49092028  0.39213207  0.95177818    -0.73900
O1099       O  0.42747342  0.30221172  0.01643967    -0.73700
O1100       O  0.47743520  0.30994420  0.96531953    -0.79400
O1101       O  0.47961147  0.30866594  0.54969886    -0.77600
O1102       O  0.51680045  0.37750018  0.00644537    -1.13700
O1103       O  0.55761644  0.38608434  0.56018921    -0.72900
C1104       C  0.54802087  0.41762471  0.56652571     0.97800
C1105       C  0.53322358  0.41866489  0.94351504     0.94200
Al1106     Al  0.46337888  0.35162138  0.98595238     1.55600
O1107       O  0.61101469  0.44148977  0.51448840    -0.77500
C1108       C  0.43829765  0.28696863  0.53977644     0.98400
C1109       C  0.46761410  0.43764295  0.99721316     0.93300
O1110       O  0.51082474  0.45525709  0.99614864    -0.82800
O1111       O  0.65920975  0.54924901  0.76514293    -0.82300
C1112       C  0.54316144  0.35416153  0.74578741     0.97100
O1113       O  0.58156464  0.37322753  0.75942871    -0.71400
O1114       O  0.65023616  0.43587736  0.72934858    -0.75000
Al1115     Al  0.62559667  0.43676204  0.76676029     1.49000
C1116       C  0.67894833  0.47170064  0.71481092     0.92300
O1117       O  0.59705772  0.48616507  0.69442147    -0.81200
O1118       O  0.53319988  0.48613656  0.76680943    -0.74800
Al1119     Al  0.62472184  0.51554013  0.72962992     1.90100
O1120       O  0.52447279  0.44012135  0.71136751    -0.73900
O1121       O  0.53066352  0.41839386  0.79647061    -0.73700
O1122       O  0.52008817  0.37429954  0.74233751    -0.79400
O1123       O  0.60301947  0.43501616  0.80569405    -0.77600
O1124       O  0.59361790  0.46112521  0.75053711    -1.13700
O1125       O  0.67837031  0.49556220  0.77703889    -0.72900
C1126       C  0.68670410  0.53713107  0.77807209     0.97800
C1127       C  0.55439373  0.45783723  0.68995348     0.94200
Al1128     Al  0.53159510  0.43208512  0.75420742     1.55600
O1129       O  0.67849584  0.50931228  0.71779470    -0.77500
C1130       C  0.56301884  0.42578946  0.81488997     0.98400
C1131       C  0.53613630  0.51321477  0.74612354     0.93300
O1132       O  0.57469905  0.53340858  0.73162226    -0.82800
O1133       O  0.88647978  0.30907385  0.76860961    -0.82300
C1134       C  0.80372027  0.41967502  0.73405442     0.97100
O1135       O  0.78370461  0.38129709  0.74810695    -0.71400
O1136       O  0.78532773  0.31491264  0.72227884    -0.75000
Al1137     Al  0.80434512  0.33911332  0.76033808     1.49000
C1138       C  0.79401845  0.28487150  0.71249090     0.92300
O1139       O  0.89161095  0.36880448  0.69326954    -0.81200
O1140       O  0.94499836  0.43345064  0.76713640    -0.74800
Al1141     Al  0.89038373  0.34230410  0.73081492     1.90100
O1142       O  0.91383132  0.44045795  0.70712246    -0.73900
O1143       O  0.87428898  0.43320990  0.79038944    -0.73700
O1144       O  0.84719368  0.44297281  0.73266733    -0.79400
O1145       O  0.81854221  0.36122936  0.79937039    -0.77600
O1146       O  0.86263295  0.37188132  0.74727598    -1.13700
O1147       O  0.81158885  0.28830303  0.77536284    -0.72900
C1148       C  0.84562091  0.28114319  0.77992766     0.97800
C1149       C  0.90456407  0.41068193  0.68667914     0.94200
Al1150     Al  0.89313333  0.43311876  0.74939003     1.55600
O1151       O  0.83301307  0.28751444  0.71818752    -0.77500
C1152       C  0.84736029  0.40079370  0.80863388     0.98400
C1153       C  0.97267201  0.43093852  0.74946781     0.93300
O1154       O  0.95710667  0.39333174  0.73540920    -0.82800
O1155       O  0.90133807  0.42498673  0.53900301    -0.82300
C1156       C  0.79135298  0.47722360  0.96929702     0.97100
O1157       O  0.78307767  0.46049666  0.49563585    -0.71400
O1158       O  0.77539911  0.38079796  0.50195600    -0.75000
Al1159     Al  0.81175786  0.43916681  0.52236136     1.49000
C1160       C  0.78876434  0.35164921  0.49872934     0.92300
O1161       O  0.86243507  0.40201710  0.95626138    -0.81200
O1162       O  0.95365728  0.52402391  0.99023261    -0.74800
Al1163     Al  0.88107245  0.41320417  0.99808680     1.90100
O1164       O  0.89641983  0.47668850  0.94372565    -0.73900
O1165       O  0.88000695  0.54533519  0.50633015    -0.73700
O1166       O  0.83196003  0.49524041  0.95824567    -0.79400
O1167       O  0.83957228  0.49573493  0.54285196    -0.77600
O1168       O  0.86178338  0.45466178  0.49960435    -1.13700
O1169       O  0.83353151  0.41576070  0.55515314    -0.72900
C1170       C  0.87422187  0.42160178  0.56040427     0.97800
C1171       C  0.87570062  0.43455273  0.93630537     0.94200
Al1172     Al  0.88875084  0.50633480  0.97723324     1.55600
O1173       O  0.82675637  0.36028165  0.51009867    -0.77500
C1174       C  0.85540750  0.53533281  0.53041017     0.98400
C1175       C  0.96860356  0.49559441  0.98537277     0.93300
O1176       O  0.94084598  0.45315084  0.98629005    -0.82800
O1177       O  0.57541554  0.76415559  0.71593450    -0.82300
C1178       C  0.46148266  0.81177019  0.64641056     0.97100
O1179       O  0.45421522  0.79595546  0.67281251    -0.71400
O1180       O  0.44878129  0.71791903  0.68144584    -0.75000
Al1181     Al  0.48492036  0.77716361  0.69966339     1.49000
C1182       C  0.46141971  0.68814907  0.67888203     0.92300
O1183       O  0.53468731  0.73670243  0.63390387    -0.81200
O1184       O  0.62608873  0.86115431  0.66392231    -0.74800
Al1185     Al  0.55453284  0.75064623  0.67539963     1.90100
O1186       O  0.56640356  0.81062729  0.61954138    -0.73900
O1187       O  0.55283369  0.88274281  0.68126594    -0.73700
O1188       O  0.50149021  0.82913979  0.63435647    -0.79400
O1189       O  0.51261883  0.83515665  0.71868319    -0.77600
O1190       O  0.53400577  0.79142062  0.67620243    -1.13700
O1191       O  0.50814862  0.75601239  0.73231393    -0.72900
C1192       C  0.54881417  0.76191259  0.73732398     0.97800
C1193       C  0.54745042  0.76810499  0.61320735     0.94200
Al1194     Al  0.56007954  0.84216815  0.65234868     1.55600
O1195       O  0.50031327  0.69725082  0.68883480    -0.77500
C1196       C  0.52941557  0.87451738  0.70575208     0.98400
C1197       C  0.64115203  0.83248704  0.66017941     0.93300
O1198       O  0.61366636  0.79013781  0.66252699    -0.82800
O1199       O  0.55137714  0.64248828  0.94396053    -0.82300
C1200       C  0.47394218  0.75796423  0.91131943     0.97100
O1201       O  0.45296774  0.71992019  0.92579647    -0.71400
O1202       O  0.44882127  0.64988717  0.90039993    -0.75000
Al1203     Al  0.47158793  0.67596522  0.93790386     1.49000
C1204       C  0.45670031  0.61942905  0.89027863     0.92300
O1205       O  0.55542374  0.70218245  0.86893608    -0.81200
O1206       O  0.61295154  0.76573906  0.94242216    -0.74800
Al1207     Al  0.55473533  0.67570926  0.90633248     1.90100
O1208       O  0.58139188  0.77437934  0.88328752    -0.73900
O1209       O  0.54554885  0.77018126  0.96647900    -0.73700
O1210       O  0.51738792  0.78004288  0.90943581    -0.79400
O1211       O  0.48894543  0.69921085  0.97665820    -0.77600
O1212       O  0.52930675  0.70690405  0.92350311    -1.13700
O1213       O  0.47754947  0.62417973  0.95264968    -0.72900
C1214       C  0.51076736  0.61539430  0.95587334     0.97800
C1215       C  0.57119065  0.74468770  0.86276432     0.94200
Al1216     Al  0.56212786  0.76818879  0.92548183     1.55600
O1217       O  0.49596989  0.62205268  0.89477002    -0.77500
C1218       C  0.51932571  0.73866508  0.98530679     0.98400
C1219       C  0.63941417  0.76340653  0.92365475     0.93300
O1220       O  0.62263386  0.72558959  0.90966170    -0.82800
O1221       O  0.08944426  0.40787305  0.93637958    -0.82300
C1222       C  0.28298628  0.47680987  0.91214948     0.97100
O1223       O  0.26686644  0.49288540  0.93112301    -0.71400
O1224       O  0.20963289  0.50975678  0.90157533    -0.75000
Al1225     Al  0.20357224  0.47828023  0.93789155     1.49000
C1226       C  0.17445489  0.50809797  0.88916779     0.92300
O1227       O  0.15045284  0.40941952  0.86396372    -0.81200
O1228       O  0.14826760  0.34047424  0.93636653    -0.74800
Al1229     Al  0.12252278  0.40716046  0.90021001     1.90100
O1230       O  0.18922946  0.37378327  0.87797583    -0.73900
O1231       O  0.22243590  0.40123692  0.96162520    -0.73700
O1232       O  0.25999837  0.43569283  0.90436278    -0.79400
O1233       O  0.19882762  0.44965609  0.97496342    -0.77600
O1234       O  0.17650149  0.42515192  0.91956288    -1.13700
O1235       O  0.14644230  0.47722174  0.94879538    -0.72900
C1236       C  0.10333370  0.44690180  0.94908163     0.97800
C1237       C  0.17318838  0.38950832  0.85758309     0.94200
Al1238     Al  0.20304874  0.39001600  0.92023453     1.55600
O1239       O  0.13521797  0.47046537  0.88999412    -0.77500
C1240       C  0.20994100  0.41944182  0.98169467     0.98400
C1241       C  0.11935462  0.31742530  0.91693886     0.93300
O1242       O  0.10038407  0.33768939  0.90263119    -0.82800
O1243       O  0.18294523  0.40155185  0.71154115    -0.82300
C1244       C  0.33969094  0.51372259  0.64286923     0.97100
O1245       O  0.30589191  0.51409924  0.65559454    -0.71400
O1246       O  0.23134994  0.49583583  0.68441259    -0.75000
Al1247     Al  0.27973740  0.48005636  0.69077592     1.49000
C1248       C  0.19927329  0.48123939  0.66511690     0.92300
O1249       O  0.19185736  0.38131864  0.62733474    -0.81200
O1250       O  0.24472133  0.34382783  0.65064163    -0.74800
Al1251     Al  0.19273368  0.39393612  0.66986286     1.90100
O1252       O  0.26663948  0.41750067  0.61403583    -0.73900
O1253       O  0.32345475  0.40988656  0.68648318    -0.73700
O1254       O  0.34190272  0.47656727  0.64247407    -0.79400
O1255       O  0.33537039  0.47770911  0.70165137    -0.77600
O1256       O  0.25438246  0.42884143  0.67046283    -1.13700
O1257       O  0.25454904  0.44830123  0.72704414    -0.72900
C1258       C  0.21259111  0.41813530  0.73247459     0.97800
C1259       C  0.22396756  0.39708706  0.60731142     0.94200
Al1260     Al  0.29125426  0.41270654  0.65041284     1.55600
O1261       O  0.18190880  0.44100746  0.65563797    -0.77500
C1262       C  0.34782768  0.44722953  0.70095283     0.98400
C1263       C  0.20510808  0.32212042  0.66419340     0.93300
O1264       O  0.19759908  0.34317986  0.68417140    -0.82800
O1265       O  0.20487374  0.77683382  0.71430341    -0.82300
C1266       C  0.15902288  0.61798898  0.64743583     0.97100
O1267       O  0.18200908  0.63104454  0.67104939    -0.71400
O1268       O  0.25796682  0.70586380  0.67702638    -0.75000
Al1269     Al  0.19820204  0.67776892  0.69776281     1.49000
C1270       C  0.28562406  0.74861775  0.67342327     0.92300
O1271       O  0.22941686  0.76856226  0.63157639    -0.81200
O1272       O  0.10466196  0.72768786  0.66640775    -0.74800
Al1273     Al  0.21713324  0.77181643  0.67351777     1.90100
O1274       O  0.15513108  0.72089114  0.61976910    -0.73900
O1275       O  0.08855037  0.63821683  0.68589917    -0.73700
O1276       O  0.13712734  0.63739458  0.63710487    -0.79400
O1277       O  0.14040956  0.64171787  0.71884780    -0.77600
O1278       O  0.17894200  0.71018655  0.67566690    -1.13700
O1279       O  0.21706541  0.72007851  0.73036273    -0.72900
C1280       C  0.20924475  0.75314472  0.73548869     0.97800
C1281       C  0.19744107  0.74828767  0.61206640     0.94200
Al1282     Al  0.12577648  0.68357918  0.65458917     1.55600
O1283       O  0.27390499  0.77558677  0.68400972    -0.77500
C1284       C  0.09929768  0.62112973  0.70847557     0.98400
C1285       C  0.13173446  0.77129003  0.66222006     0.93300
O1286       O  0.17466173  0.78801202  0.66328869    -0.82800
O1287       O  0.32559168  0.87940095  0.93813738    -0.82300
C1288       C  0.21599422  0.68573001  0.91325528     0.97100
O1289       O  0.25170711  0.70453367  0.92949607    -0.71400
O1290       O  0.31994760  0.76960080  0.89967052    -0.75000
Al1291     Al  0.29423165  0.76805133  0.93709693     1.49000
C1292       C  0.34876896  0.80694981  0.88648659     0.92300
O1293       O  0.26565859  0.82088111  0.86570316    -0.81200
O1294       O  0.19718293  0.81073375  0.93816175    -0.74800
Al1295     Al  0.29164727  0.84752511  0.90193538     1.90100
O1296       O  0.19282992  0.77239557  0.88063456    -0.73900
O1297       O  0.19695902  0.74175309  0.96495463    -0.73700
O1298       O  0.19243819  0.70505548  0.90815628    -0.79400
O1299       O  0.27061442  0.76482944  0.97547843    -0.77600
O1300       O  0.26142284  0.79167254  0.92101492    -1.13700
O1301       O  0.34593423  0.82628327  0.94840618    -0.72900
C1302       C  0.35391096  0.86752958  0.95019182     0.97800
C1303       C  0.22345165  0.79287618  0.85986399     0.94200
Al1304     Al  0.19925892  0.75986964  0.92307401     1.55600
O1305       O  0.34617266  0.84339225  0.88972316    -0.77500
C1306       C  0.22938898  0.75194720  0.98395937     0.98400
C1307       C  0.20016779  0.83947506  0.91863252     0.93300
O1308       O  0.23982135  0.86296558  0.90545900    -0.82800
O1309       O  0.23755563  0.09011053  0.88456246    -0.82300
C1310       C  0.12045326  0.13060291  0.81352991     0.97100
O1311       O  0.11318275  0.11451076  0.83984925    -0.71400
O1312       O  0.11177901  0.03786510  0.84710490    -0.75000
Al1313     Al  0.14445660  0.09684151  0.86679704     1.49000
C1314       C  0.12728036  0.01029964  0.84435572     0.92300
O1315       O  0.20320455  0.06328962  0.80187960    -0.81200
O1316       O  0.28570153  0.18868614  0.83319444    -0.74800
Al1317     Al  0.21948732  0.07676894  0.84389092     1.90100
O1318       O  0.22983027  0.13677125  0.78806350    -0.73900
O1319       O  0.20803108  0.20338535  0.84956355    -0.73700
O1320       O  0.16079783  0.14970684  0.80185633    -0.79400
O1321       O  0.16867906  0.15419492  0.88664896    -0.77600
O1322       O  0.19525350  0.11454021  0.84415685    -1.13700
O1323       O  0.16783845  0.07630718  0.89985016    -0.72900
C1324       C  0.20950341  0.08560885  0.90550245     0.97800
C1325       C  0.21506390  0.09490978  0.78144085     0.94200
Al1326     Al  0.21952857  0.16578761  0.82072302     1.55600
O1327       O  0.16590819  0.02107968  0.85565071    -0.77500
C1328       C  0.18398082  0.19358487  0.87386389     0.98400
C1329       C  0.30360921  0.16234668  0.83001155     0.93300
O1330       O  0.27851127  0.11964041  0.83292813    -0.82800
O1331       O  0.22351034  0.97855390  0.61012670    -0.82300
C1332       C  0.14326344  0.09263323  0.57974595     0.97100
O1333       O  0.12312475  0.05404009  0.59350346    -0.71400
O1334       O  0.12087589  0.98620652  0.56683979    -0.75000
Al1335     Al  0.14278071  0.01095158  0.60476930     1.49000
C1336       C  0.12805456  0.95489339  0.55760792     0.92300
O1337       O  0.22714763  0.04022822  0.53622010    -0.81200
O1338       O  0.28454850  0.10284929  0.60952515    -0.74800
Al1339     Al  0.22665704  0.01265855  0.57302727     1.90100
O1340       O  0.25252730  0.11225057  0.55113105    -0.73900
O1341       O  0.21620823  0.10413845  0.63480892    -0.73700
O1342       O  0.18679619  0.11569248  0.57801650    -0.79400
O1343       O  0.15942409  0.03275089  0.64374959    -0.77600
O1344       O  0.20070873  0.04297817  0.59072829    -1.13700
O1345       O  0.14948741  0.95961171  0.61878839    -0.72900
C1346       C  0.18277000  0.95094354  0.62170350     0.97800
C1347       C  0.24198816  0.08272837  0.53045871     0.94200
Al1348     Al  0.23278641  0.10430476  0.59340152     1.55600
O1349       O  0.16789384  0.95838362  0.56126453    -0.77500
C1350       C  0.19010282  0.07153051  0.65310514     0.98400
C1351       C  0.31079207  0.10080105  0.59041667     0.93300
O1352       O  0.29424486  0.06274722  0.57671158    -0.82800
O1353       O  0.85556483  0.74532764  0.87661829    -0.82300
C1354       C  0.01162052  0.84270895  0.80312829     0.97100
O1355       O  0.97909417  0.84682741  0.81455991    -0.71400
O1356       O  0.90746064  0.83732674  0.84327199    -0.75000
Al1357     Al  0.95307251  0.81867866  0.85162914     1.49000
C1358       C  0.87275851  0.82094897  0.82595427     0.92300
O1359       O  0.85802247  0.71485419  0.79364299    -0.81200
O1360       O  0.90755013  0.67470359  0.81964323    -0.74800
Al1361     Al  0.86174366  0.73217635  0.83556155     1.90100
O1362       O  0.93224805  0.74491396  0.77964592    -0.73900
O1363       O  0.98929072  0.74186565  0.85348650    -0.73700
O1364       O  0.01106053  0.80413918  0.80561654    -0.79400
O1365       O  0.00707277  0.81355840  0.86384614    -0.77600
O1366       O  0.92375661  0.76444225  0.83473346    -1.13700
O1367       O  0.92819125  0.79353176  0.88959357    -0.72900
C1368       C  0.88635491  0.76467651  0.89664797     0.97800
C1369       C  0.88951281  0.72776807  0.77331982     0.94200
Al1370     Al  0.95731170  0.74259725  0.81649843     1.55600
O1371       O  0.85260427  0.77921205  0.81928885    -0.77500
C1372       C  0.01607704  0.78058223  0.86604875     0.98400
C1373       C  0.86783935  0.65678711  0.83301839     0.93300
O1374       O  0.86349792  0.68097610  0.85218310    -0.82800
O1375       O  0.75410275  0.74059383  0.60175909    -0.82300
C1376       C  0.95039811  0.81147459  0.58001387     0.97100
O1377       O  0.93271905  0.82819514  0.59729705    -0.71400
O1378       O  0.87463680  0.84450075  0.56868805    -0.75000
Al1379     Al  0.86904563  0.81204564  0.60450927     1.49000
C1380       C  0.83922662  0.84409789  0.55776493     0.92300
O1381       O  0.81838344  0.74846514  0.52903247    -0.81200
O1382       O  0.81280566  0.67377146  0.59887685    -0.74800
Al1383     Al  0.78869968  0.74290079  0.56529602     1.90100
O1384       O  0.85875091  0.71384570  0.54223982    -0.73900
O1385       O  0.88462403  0.73150052  0.62725607    -0.73700
O1386       O  0.92768496  0.77041266  0.57220410    -0.79400
O1387       O  0.86520217  0.78280799  0.64132150    -0.77600
O1388       O  0.84242375  0.75977671  0.58530322    -1.13700
O1389       O  0.81118104  0.80893582  0.61607945    -0.72900
C1390       C  0.76802177  0.77864952  0.61584722     0.97800
C1391       C  0.84335889  0.73100868  0.52231859     0.94200
Al1392     Al  0.86884867  0.72451325  0.58533935     1.55600
O1393       O  0.80024973  0.80635411  0.55758873    -0.77500
C1394       C  0.87482428  0.75138795  0.64762329     0.98400
C1395       C  0.78575509  0.65260606  0.57820996     0.93300
O1396       O  0.76716940  0.67374926  0.56467752    -0.82800
O1397       O  0.87106206  0.10845270  0.88401143    -0.82300
C1398       C  0.82049363  0.94928532  0.81682015     0.97100
O1399       O  0.83947985  0.95850638  0.84202923    -0.71400
O1400       O  0.91815379  0.03123835  0.84779211    -0.75000
Al1401     Al  0.85867213  0.00683124  0.86848532     1.49000
C1402       C  0.94756957  0.07348725  0.84364214     0.92300
O1403       O  0.89485446  0.09803164  0.80164643    -0.81200
O1404       O  0.77042651  0.06179947  0.83586195    -0.74800
Al1405     Al  0.88277120  0.10219779  0.84340249     1.90100
O1406       O  0.82013694  0.05397374  0.78957371    -0.73900
O1407       O  0.75076336  0.96925102  0.85490448    -0.73700
O1408       O  0.80136554  0.97102458  0.80598262    -0.79400
O1409       O  0.80092969  0.97502611  0.88976327    -0.77600
O1410       O  0.84234616  0.04107936  0.84570823    -1.13700
O1411       O  0.88020013  0.05020248  0.90075244    -0.72900
C1412       C  0.87436731  0.08465073  0.90551940     0.97800
C1413       C  0.86281672  0.07960650  0.78202414     0.94200
Al1414     Al  0.78976063  0.01621635  0.82403589     1.55600
O1415       O  0.93820656  0.10247187  0.85389610    -0.77500
C1416       C  0.76053701  0.95322168  0.87855235     0.98400
C1417       C  0.79876553  0.10523433  0.83107305     0.93300
O1418       O  0.84159707  0.12075257  0.83283029    -0.82800
O1419       O  0.99317662  0.21645704  0.60403451    -0.82300
C1420       C  0.87670068  0.02153280  0.58555322     0.97100
O1421       O  0.91282883  0.04050322  0.60142867    -0.71400
O1422       O  0.98054824  0.10127349  0.56867018    -0.75000
Al1423     Al  0.95781541  0.10414648  0.60636671     1.49000
C1424       C  0.01070816  0.13740416  0.55502181     0.92300
O1425       O  0.92820377  0.15452004  0.53370201    -0.81200
O1426       O  0.86490148  0.15130372  0.60741949    -0.74800
Al1427     Al  0.95688323  0.18277066  0.56909011     1.90100
O1428       O  0.85582579  0.10914791  0.55072819    -0.73900
O1429       O  0.86289021  0.08168745  0.63516179    -0.73700
O1430       O  0.85453866  0.04194542  0.57919668    -0.79400
O1431       O  0.93682997  0.10500776  0.64500541    -0.77600
O1432       O  0.92590552  0.12834504  0.58981784    -1.13700
O1433       O  0.01167414  0.16231009  0.61530336    -0.72900
C1434       C  0.02101053  0.20409218  0.61607106     0.97800
C1435       C  0.88532603  0.12728320  0.52914875     0.94200
Al1436     Al  0.86390807  0.09837934  0.59311755     1.55600
O1437       O  0.00948591  0.17490193  0.55669883    -0.77500
C1438       C  0.89568855  0.09183597  0.65387273     0.98400
C1439       C  0.86848002  0.17992518  0.58756904     0.93300
O1440       O  0.90725772  0.20093880  0.57314481    -0.82800
C1441       C  0.87113161  0.09648955  0.93672920    -0.06000
C1442       C  0.84813725  0.06052271  0.95834694    -0.33400
C1443       C  0.84772368  0.07040795  0.98862365     0.35900
C1444       C  0.87179499  0.11671289  0.99767880    -0.06300
C1445       C  0.89210522  0.15275318  0.97586850    -0.33300
C1446       C  0.89139440  0.14293210  0.94549062     0.35800
H1447       H  0.83144118  0.02457312  0.95181663     0.16100
O1448       O  0.82791921  0.03454126  0.00942111    -0.60800
H1449       H  0.91084753  0.18862652  0.98262810     0.16100
O1450       O  0.91295725  0.17890813  0.92487520    -0.60900
H1451       H  0.94546799  0.18459280  0.92291534     0.43100
H1452       H  0.79676159  0.03085677  0.01411087     0.43100
C1453       C  0.87334998  0.08667437  0.74947631    -0.06000
C1454       C  0.83665482  0.07777682  0.72949537    -0.33400
C1455       C  0.84305779  0.07896152  0.69849314     0.35900
C1456       C  0.88691934  0.08923796  0.68666439    -0.06300
C1457       C  0.92388718  0.09883615  0.70666471    -0.33300
C1458       C  0.91742241  0.09774417  0.73775175     0.35800
H1459       H  0.80229645  0.06914477  0.73790374     0.16100
O1460       O  0.80625499  0.07058007  0.68010176    -0.60800
H1461       H  0.95808826  0.10692793  0.69826543     0.16100
O1462       O  0.95365066  0.10503141  0.75636186    -0.60900
H1463       H  0.97202519  0.13914826  0.75867164     0.43100
H1464       H  0.78847045  0.03637132  0.67800483     0.43100
C1465       C  0.84311864  0.88972279  0.55224172    -0.06000
C1466       C  0.80655418  0.89664036  0.56210996    -0.33400
C1467       C  0.81628738  0.94019928  0.57218677     0.35900
C1468       C  0.86296065  0.97679181  0.57234737    -0.06300
C1469       C  0.89805452  0.97142984  0.55872442    -0.33300
C1470       C  0.88834974  0.92851091  0.54820005     0.35800
H1471       H  0.77150719  0.86751942  0.56489486     0.16100
O1472       O  0.78105814  0.94533908  0.58457306    -0.60800
H1473       H  0.93370008  0.00019463  0.55739764     0.16100
O1474       O  0.92425076  0.92365256  0.53657409    -0.60900
H1475       H  0.94690182  0.93090952  0.55316320     0.43100
H1476       H  0.76468614  0.95003150  0.56727418     0.43100
C1477       C  0.85541995  0.85072277  0.81338458    -0.06000
C1478       C  0.80731541  0.83562714  0.81408557    -0.33400
C1479       C  0.79166164  0.86700170  0.80740617     0.35900
C1480       C  0.82440226  0.91369850  0.80059163    -0.06300
C1481       C  0.87058243  0.92550006  0.79356578    -0.33300
C1482       C  0.88667946  0.89479284  0.80097734     0.35800
H1483       H  0.78242505  0.80081127  0.82210675     0.16100
O1484       O  0.74533609  0.85325190  0.81150746    -0.60800
H1485       H  0.89575386  0.96095226  0.78697645     0.16100
O1486       O  0.93320242  0.90874530  0.79712603    -0.60900
H1487       H  0.94795193  0.92102366  0.81671675     0.43100
H1488       H  0.73139855  0.84538474  0.79125592     0.43100
C1489       C  0.87435176  0.75259532  0.92878426    -0.06000
C1490       C  0.91082594  0.76463293  0.94956772    -0.33400
C1491       C  0.90117425  0.75430755  0.98017776     0.35900
C1492       C  0.85456583  0.73171963  0.99045365    -0.06300
C1493       C  0.81803137  0.71832830  0.96978175    -0.33300
C1494       C  0.82751454  0.72806892  0.93912363     0.35800
H1495       H  0.94713857  0.78282443  0.94218823     0.16100
O1496       O  0.93756247  0.76884345  0.99998402    -0.60800
H1497       H  0.78195575  0.70164858  0.97762719     0.16100
O1498       O  0.79081952  0.71556611  0.91980117    -0.60900
H1499       H  0.78131633  0.68337208  0.91413994     0.43100
H1500       H  0.94471490  0.80037236  0.00571137     0.43100
C1501       C  0.87770281  0.72395630  0.74143394    -0.06000
C1502       C  0.90437665  0.71418909  0.72136776    -0.33400
C1503       C  0.90233581  0.72082650  0.69049680     0.35900
C1504       C  0.87376070  0.73808778  0.67942089    -0.06300
C1505       C  0.84477304  0.74491040  0.69940015    -0.33300
C1506       C  0.84659585  0.73796662  0.73025579     0.35800
H1507       H  0.92864025  0.70350978  0.72979801     0.16100
O1508       O  0.93126060  0.71409272  0.67172274    -0.60800
H1509       H  0.82178281  0.75728896  0.69115988     0.16100
O1510       O  0.82041805  0.74813485  0.74929882    -0.60900
H1511       H  0.84023425  0.78167192  0.75336243     0.43100
H1512       H  0.91318394  0.68086983  0.66650190     0.43100
C1513       C  0.11545017  0.10993755  0.56429279    -0.06000
C1514       C  0.07641378  0.07887194  0.54789224    -0.33400
C1515       C  0.04550704  0.09246380  0.53637174     0.35900
C1516       C  0.05180700  0.13621738  0.54358567    -0.06300
C1517       C  0.09545619  0.16993725  0.55431757    -0.33300
C1518       C  0.12724000  0.15682822  0.56521189     0.35800
H1519       H  0.06873151  0.04346853  0.54529589     0.16100
O1520       O  0.00486637  0.06014676  0.52317824    -0.60800
H1521       H  0.10187576  0.20439062  0.55864649     0.16100
O1522       O  0.16715687  0.18886488  0.57923781    -0.60900
H1523       H  0.15782180  0.18785090  0.60049183     0.43100
H1524       H  0.01359704  0.05951797  0.50200759     0.43100
C1525       C  0.08650841  0.91088707  0.54975630    -0.06000
C1526       C  0.07995826  0.87017952  0.56448945    -0.33400
C1527       C  0.03507823  0.83555702  0.57356204     0.35900
C1528       C  0.99664327  0.84143635  0.56687330    -0.06300
C1529       C  0.00229539  0.87730109  0.54723542    -0.33300
C1530       C  0.04709778  0.91221342  0.53861513     0.35800
H1531       H  0.10964951  0.86777200  0.57217253     0.16100
O1532       O  0.02978950  0.79900698  0.59143598    -0.60800
H1533       H  0.97203870  0.87946721  0.53992600     0.16100
O1534       O  0.05245253  0.94969548  0.52170526    -0.60900
H1535       H  0.03960992  0.96518521  0.53416974     0.43100
H1536       H  0.02217745  0.77345273  0.57748135     0.43100
C1537       C  0.10388379  0.96855860  0.82576659    -0.06000
C1538       C  0.06986251  0.96412761  0.80498481    -0.33400
C1539       C  0.04700599  0.92446597  0.78767144     0.35900
C1540       C  0.05374094  0.88649889  0.79410830    -0.06300
C1541       C  0.09475986  0.89532366  0.80886164    -0.33300
C1542       C  0.11891467  0.93528714  0.82576198     0.35800
H1543       H  0.06027586  0.99074056  0.80259771     0.16100
O1544       O  0.01216417  0.91953870  0.76857632    -0.60800
H1545       H  0.10395939  0.86850776  0.81094445     0.16100
O1546       O  0.15543026  0.94012119  0.84322932    -0.60900
H1547       H  0.14091268  0.92483909  0.86275402     0.43100
H1548       H  0.02855735  0.93549688  0.74961708     0.43100
C1549       C  0.22471568  0.09169440  0.93703876    -0.06000
C1550       C  0.20493062  0.10934157  0.95715145    -0.33400
C1551       C  0.21485006  0.11157827  0.98777597     0.35900
C1552       C  0.24431787  0.09535482  0.99871566    -0.06300
C1553       C  0.26617089  0.08015750  0.97845370    -0.33300
C1554       C  0.25749638  0.07936736  0.94767491     0.35800
H1555       H  0.18044495  0.12004745  0.94924840     0.16100
O1556       O  0.19246208  0.12587810  0.00709966    -0.60800
H1557       H  0.28796341  0.06635943  0.98669131     0.16100
O1558       O  0.27811607  0.06278601  0.92864665    -0.60900
H1559       H  0.30944348  0.08977663  0.92383127     0.43100
H1560       H  0.16134536  0.09805241  0.01103432     0.43100
C1561       C  0.21176725  0.08565792  0.74886323    -0.06000
C1562       C  0.23707834  0.12379296  0.72890836    -0.33400
C1563       C  0.22975997  0.12007181  0.69805603     0.35900
C1564       C  0.19687510  0.07731684  0.68604478    -0.06300
C1565       C  0.17265782  0.03851301  0.70584047    -0.33300
C1566       C  0.18003598  0.04240305  0.73695918     0.35800
H1567       H  0.26201309  0.15758599  0.73728397     0.16100
O1568       O  0.25509078  0.15873886  0.67998229    -0.60800
H1569       H  0.14776711  0.00487443  0.69723432     0.16100
O1570       O  0.15432155  0.00440334  0.75545121    -0.60900
H1571       H  0.17310065  0.98856651  0.75718666     0.43100
H1572       H  0.23587283  0.17416451  0.67865229     0.43100
C1573       C  0.07872828  0.12404094  0.79768338    -0.06000
C1574       C  0.04473138  0.07700182  0.79560281    -0.33400
C1575       C  0.00200739  0.05939944  0.81108438     0.35900
C1576       C  0.99088785  0.09008831  0.82539446    -0.06300
C1577       C  0.02046829  0.13823646  0.82019258    -0.33300
C1578       C  0.06345616  0.15506999  0.80524356     0.35800
H1579       H  0.05497617  0.05290640  0.78748493     0.16100
O1580       O  0.97306954  0.01233265  0.81354999    -0.60800
H1581       H  0.01131532  0.16302153  0.82869928     0.16100
O1582       O  0.09336930  0.20196360  0.80258103    -0.60900
H1583       H  0.08947423  0.21047871  0.78172506     0.43100
H1584       H  0.98356689  0.00256840  0.83181243     0.43100
C1585       C  0.06204898  0.79189970  0.88015111    -0.06000
C1586       C  0.10277652  0.81273602  0.86212760    -0.33400
C1587       C  0.14817294  0.83502339  0.87453386     0.35900
C1588       C  0.15443506  0.83304275  0.90583358    -0.06300
C1589       C  0.11333133  0.81169316  0.92394968    -0.33300
C1590       C  0.06792868  0.79267312  0.91148903     0.35800
H1591       H  0.09925898  0.81189122  0.83806673     0.16100
O1592       O  0.18606992  0.85625164  0.85547808    -0.60800
H1593       H  0.11638719  0.80874658  0.94799985     0.16100
O1594       O  0.02954451  0.77471894  0.93021178    -0.60900
H1595       H  0.01908795  0.74115529  0.93241667     0.43100
H1596       H  0.19830451  0.89001289  0.85743550     0.43100
C1597       C  0.12007310  0.80640018  0.65061640    -0.06000
C1598       C  0.13830282  0.82221435  0.62135806    -0.33400
C1599       C  0.16575779  0.86984660  0.61405407     0.35900
C1600       C  0.16847924  0.90338238  0.63382815    -0.06300
C1601       C  0.14437890  0.88753527  0.66153894    -0.33300
C1602       C  0.12259775  0.84003619  0.67053196     0.35800
H1603       H  0.13852027  0.79781613  0.60571564     0.16100
O1604       O  0.18860941  0.88319145  0.58684303    -0.60800
H1605       H  0.14397647  0.91233042  0.67671703     0.16100
O1606       O  0.10685128  0.82722102  0.69953838    -0.60900
H1607       H  0.13518373  0.83459458  0.71144125     0.43100
H1608       H  0.21914954  0.88463825  0.59026137     0.43100
C1609       C  0.20611485  0.76415268  0.76678275    -0.06000
C1610       C  0.23143479  0.81017482  0.77580320    -0.33400
C1611       C  0.23503744  0.82035807  0.80623503     0.35900
C1612       C  0.21132024  0.78433772  0.82797440    -0.06300
C1613       C  0.18240805  0.73882771  0.81863899    -0.33300
C1614       C  0.18026790  0.72847187  0.78823631     0.35800
H1615       H  0.25092906  0.83793067  0.75944662     0.16100
O1616       O  0.26289733  0.86549907  0.81463084    -0.60800
H1617       H  0.16414680  0.71082235  0.83504702     0.16100
O1618       O  0.15305719  0.68336668  0.77967319    -0.60900
H1619       H  0.17250201  0.66856380  0.78331820     0.43100
H1620       H  0.29556929  0.87150798  0.81301400     0.43100
C1621       C  0.22080256  0.75176362  0.51687291    -0.06000
C1622       C  0.25867165  0.76623665  0.53689443    -0.33400
C1623       C  0.25235288  0.76736002  0.56782678     0.35900
C1624       C  0.20767901  0.75428532  0.57942691    -0.06300
C1625       C  0.17011492  0.74100802  0.55936555    -0.33300
C1626       C  0.17627534  0.73953955  0.52850095     0.35800
H1627       H  0.29354015  0.77642620  0.52866315     0.16100
O1628       O  0.28975234  0.77967915  0.58647012    -0.60800
H1629       H  0.13524521  0.73069132  0.56767173     0.16100
O1630       O  0.13817486  0.72497552  0.51014303    -0.60900
H1631       H  0.13673910  0.75342425  0.50478475     0.43100
H1632       H  0.28955432  0.75025589  0.59122516     0.43100
C1633       C  0.18309455  0.51184776  0.65253730    -0.06000
C1634       C  0.21403712  0.55077178  0.63503420    -0.33400
C1635       C  0.20061718  0.58269024  0.62498213     0.35900
C1636       C  0.15736329  0.57732075  0.63429573    -0.06300
C1637       C  0.12397754  0.53453959  0.64722396    -0.33300
C1638       C  0.13674287  0.50195732  0.65675489     0.35800
H1639       H  0.24909703  0.55727505  0.63014766     0.16100
O1640       O  0.23243774  0.62250581  0.60997771    -0.60800
H1641       H  0.09016358  0.52908909  0.65388809     0.16100
O1642       O  0.10541541  0.46334422  0.67308778    -0.60900
H1643       H  0.08873826  0.43903430  0.65808823     0.43100
H1644       H  0.23160287  0.61342682  0.58887003     0.43100
C1645       C  0.06783929  0.23696157  0.62879167    -0.06000
C1646       C  0.07715884  0.23098357  0.65888464    -0.33400
C1647       C  0.12319259  0.25404597  0.67016216     0.35900
C1648       C  0.16201300  0.28206231  0.65109838    -0.06300
C1649       C  0.15291800  0.28346144  0.62029740    -0.33300
C1650       C  0.10655873  0.26359808  0.60951923     0.35800
H1651       H  0.04839449  0.20852981  0.67385444     0.16100
O1652       O  0.12969144  0.25086945  0.70034016    -0.60800
H1653       H  0.18162440  0.30368014  0.60486443     0.16100
O1654       O  0.09949712  0.27027759  0.57992903    -0.60900
H1655       H  0.09897811  0.29989347  0.57906708     0.43100
H1656       H  0.13965475  0.22723170  0.70251691     0.43100
C1657       C  0.12236812  0.27595965  0.90593843    -0.06000
C1658       C  0.13856588  0.25359526  0.92617228    -0.33400
C1659       C  0.15928326  0.22768701  0.91627180     0.35900
C1660       C  0.16690181  0.22514185  0.88541621    -0.06300
C1661       C  0.14921149  0.24587158  0.86514516    -0.33300
C1662       C  0.12555269  0.26914699  0.87503000     0.35800
H1663       H  0.13731123  0.25819549  0.95005901     0.16100
O1664       O  0.17431176  0.20705716  0.93714710    -0.60800
H1665       H  0.15309866  0.24327811  0.84134501     0.16100
O1666       O  0.10824048  0.28740745  0.85406566    -0.60900
H1667       H  0.07407773  0.26501378  0.85342990     0.43100
H1668       H  0.14592428  0.17762303  0.94316738     0.43100
C1669       C  0.21269778  0.39178933  0.57541385    -0.06000
C1670       C  0.17940364  0.40250034  0.56437966    -0.33400
C1671       C  0.17694399  0.40954406  0.53363699     0.35900
C1672       C  0.20759246  0.40503797  0.51355937    -0.06300
C1673       C  0.23729320  0.38926371  0.52448407    -0.33300
C1674       C  0.24009859  0.38277125  0.55530030     0.35800
H1675       H  0.15772562  0.40881615  0.57966604     0.16100
O1676       O  0.14542845  0.42227406  0.52353159    -0.60800
H1677       H  0.26015208  0.38443533  0.50935136     0.16100
O1678       O  0.27144698  0.36991036  0.56568243    -0.60900
H1679       H  0.25289574  0.33567056  0.56855713     0.43100
H1680       H  0.16032343  0.45585227  0.52770217     0.43100
C1681       C  0.19906191  0.40252359  0.76380931    -0.06000
C1682       C  0.23281847  0.40275046  0.78348045    -0.33400
C1683       C  0.22340845  0.39390750  0.81420647     0.35900
C1684       C  0.18001305  0.38538294  0.82554569    -0.06300
C1685       C  0.14500779  0.38138073  0.80556610    -0.33300
C1686       C  0.15428363  0.38999149  0.77487797     0.35800
H1687       H  0.26727812  0.41154501  0.77513818     0.16100
O1688       O  0.25832443  0.39828939  0.83310776    -0.60800
H1689       H  0.11115873  0.37435700  0.81403599     0.16100
O1690       O  0.12047950  0.38915339  0.75632719    -0.60900
H1691       H  0.12416664  0.42063383  0.75729254     0.43100
H1692       H  0.25219435  0.36617960  0.83682606     0.43100
C1693       C  0.17927167  0.55316710  0.87997664    -0.06000
C1694       C  0.22527405  0.59034484  0.87614609    -0.33400
C1695       C  0.23739487  0.63400618  0.88659280     0.35900
C1696       C  0.20272123  0.64159628  0.89910813    -0.06300
C1697       C  0.15541853  0.60715222  0.89710756    -0.33300
C1698       C  0.14350029  0.56294905  0.88721150     0.35800
H1699       H  0.25310552  0.58406510  0.86912083     0.16100
O1700       O  0.28343579  0.66852906  0.88545922    -0.60800
H1701       H  0.12805051  0.61350819  0.90507127     0.16100
O1702       O  0.09755295  0.52850011  0.88808198    -0.60900
H1703       H  0.08537739  0.52914872  0.86780642     0.43100
H1704       H  0.29740473  0.66440840  0.90422788     0.43100
C1705       C  0.44782975  0.77643078  0.89518275    -0.06000
C1706       C  0.46237325  0.82391200  0.89599932    -0.33400
C1707       C  0.43363201  0.84008557  0.88405168     0.35900
C1708       C  0.38957080  0.80784696  0.87276379    -0.06300
C1709       C  0.38233528  0.76434969  0.86437774    -0.33300
C1710       C  0.40966225  0.74740985  0.87727474     0.35800
H1711       H  0.49390372  0.84754789  0.90781044     0.16100
O1712       O  0.44495396  0.88511112  0.88850150    -0.60800
H1713       H  0.35003918  0.74020668  0.85348196     0.16100
O1714       O  0.39778935  0.70214247  0.87325182    -0.60900
H1715       H  0.37693390  0.68450909  0.89046216     0.43100
H1716       H  0.45095312  0.89984218  0.86817519     0.43100
C1717       C  0.67986294  0.80907775  0.91197236    -0.06000
C1718       C  0.68114669  0.82130115  0.88137401    -0.33400
C1719       C  0.70091554  0.86815286  0.87147727     0.35900
C1720       C  0.72783454  0.90479293  0.89096468    -0.06300
C1721       C  0.73112232  0.89249139  0.92104841    -0.33300
C1722       C  0.70574155  0.84577517  0.93177429     0.35800
H1723       H  0.66287642  0.79449029  0.86528784     0.16100
O1724       O  0.69365574  0.87769006  0.84251565    -0.60800
H1725       H  0.75253501  0.91938486  0.93657360     0.16100
O1726       O  0.70641180  0.83624352  0.96181420    -0.60900
H1727       H  0.68373386  0.84367358  0.97126159     0.43100
H1728       H  0.66115785  0.87236086  0.84230388     0.43100
C1729       C  0.41623512  0.57694260  0.87941872    -0.06000
C1730       C  0.41015752  0.53434522  0.89045531    -0.33400
C1731       C  0.36581407  0.49953321  0.90020322     0.35900
C1732       C  0.32773195  0.50729090  0.89755506    -0.06300
C1733       C  0.33239005  0.54534139  0.88061595    -0.33300
C1734       C  0.37643936  0.57941009  0.87045688     0.35800
H1735       H  0.44009906  0.53030840  0.89507249     0.16100
O1736       O  0.36080967  0.46026745  0.91451966    -0.60800
H1737       H  0.30228194  0.54969870  0.87657808     0.16100
O1738       O  0.38096949  0.61804897  0.85563261    -0.60900
H1739       H  0.38576113  0.61377116  0.83426567     0.43100
H1740       H  0.36412516  0.46727573  0.93616536     0.43100
C1741       C  0.37961126  0.55951320  0.63520326    -0.06000
C1742       C  0.36895545  0.59526765  0.63084546    -0.33400
C1743       C  0.39454730  0.63685794  0.64565740     0.35900
C1744       C  0.43417989  0.64504176  0.66225410    -0.06300
C1745       C  0.45020118  0.61289384  0.66093344    -0.33300
C1746       C  0.42342920  0.57049335  0.64707155     0.35800
H1747       H  0.33589595  0.58783257  0.62084215     0.16100
O1748       O  0.37814468  0.66737273  0.64580013    -0.60800
H1749       H  0.48219310  0.61938824  0.67205781     0.16100
O1750       O  0.43705037  0.53775809  0.64940513    -0.60900
H1751       H  0.44602977  0.53462697  0.62874780     0.43100
H1752       H  0.36207645  0.66171554  0.66551749     0.43100
C1753       C  0.73558188  0.79392516  0.62842574    -0.06000
C1754       C  0.71087725  0.80718936  0.60850987    -0.33400
C1755       C  0.68900048  0.83214270  0.61811478     0.35900
C1756       C  0.68772900  0.84165838  0.64881491    -0.06300
C1757       C  0.71456034  0.83030315  0.66849216    -0.33300
C1758       C  0.73915424  0.80805025  0.65843980     0.35800
H1759       H  0.70916132  0.79881466  0.58504853     0.16100
O1760       O  0.66366788  0.84189892  0.59768822    -0.60800
H1761       H  0.71312733  0.83503053  0.69234343     0.16100
O1762       O  0.76444069  0.79779724  0.67865341    -0.60900
H1763       H  0.79656168  0.82506193  0.67779338     0.43100
H1764       H  0.68263112  0.87580031  0.59348263     0.43100
C1765       C  0.56378793  0.76554384  0.76886265    -0.06000
C1766       C  0.58752191  0.74277756  0.77925355    -0.33400
C1767       C  0.59378394  0.73905675  0.81009881     0.35900
C1768       C  0.57666684  0.75871338  0.83082173    -0.06300
C1769       C  0.55717467  0.78529253  0.82024240    -0.33300
C1770       C  0.55061525  0.78874457  0.78951333     0.35800
H1771       H  0.59856981  0.72544734  0.76368301     0.16100
O1772       O  0.61438992  0.71401071  0.81990753    -0.60800
H1773       H  0.54400077  0.80068757  0.83589154     0.16100
O1774       O  0.52951466  0.81341166  0.77997475    -0.60900
H1775       H  0.55575482  0.84529241  0.77571598     0.43100
H1776       H  0.64825468  0.73706328  0.82142106     0.43100
C1777       C  0.54100846  0.75783226  0.58073102    -0.06000
C1778       C  0.56579554  0.79501238  0.56001387    -0.33400
C1779       C  0.55861988  0.78954643  0.52922669     0.35900
C1780       C  0.52553815  0.74617100  0.51808131    -0.06300
C1781       C  0.50038902  0.70876881  0.53870094    -0.33300
C1782       C  0.50798094  0.71430028  0.56974191     0.35800
H1783       H  0.59074273  0.82930418  0.56760496     0.16100
O1784       O  0.58357212  0.82735842  0.51039116    -0.60800
H1785       H  0.47480693  0.67488207  0.53078926     0.16100
O1786       O  0.48133929  0.67765270  0.58901411    -0.60900
H1787       H  0.49902655  0.66076209  0.59144386     0.43100
H1788       H  0.61448992  0.82940765  0.50763723     0.43100
C1789       C  0.42018018  0.80712600  0.63089652    -0.06000
C1790       C  0.38655286  0.76097723  0.62506607    -0.33400
C1791       C  0.34177572  0.74095016  0.63828849     0.35900
C1792       C  0.33003227  0.76828237  0.65603896    -0.06300
C1793       C  0.36009377  0.81674142  0.65508493    -0.33300
C1794       C  0.40403466  0.83624941  0.64114622     0.35800
H1795       H  0.39732431  0.73889406  0.61425760     0.16100
O1796       O  0.30996369  0.69535985  0.63319124    -0.60800
H1797       H  0.35048917  0.83959831  0.66608804     0.16100
O1798       O  0.43389259  0.88306517  0.64236577    -0.60900
H1799       H  0.42465288  0.89674374  0.62548735     0.43100
H1800       H  0.30598250  0.67839074  0.65250419     0.43100
C1801       C  0.83828144  0.56657580  0.54244828    -0.06000
C1802       C  0.82533490  0.56281075  0.57290203    -0.33400
C1803       C  0.80320932  0.58654608  0.58425838     0.35900
C1804       C  0.79100523  0.61356076  0.56510774    -0.06300
C1805       C  0.80040611  0.61410449  0.53419364    -0.33300
C1806       C  0.82508605  0.59252055  0.52309100     0.35800
H1807       H  0.83306205  0.54174996  0.58826580     0.16100
O1808       O  0.79429970  0.58378522  0.61450827    -0.60800
H1809       H  0.79185779  0.63437262  0.51873295     0.16100
O1810       O  0.83540083  0.59616432  0.99316091    -0.60900
H1811       H  0.86586078  0.62532568  0.99069376     0.43100
H1812       H  0.82519141  0.60369311  0.62386234     0.43100
C1813       C  0.07027504  0.46265212  0.95960174    -0.06000
C1814       C  0.04089728  0.46675560  0.93851678    -0.33400
C1815       C  0.01551630  0.48949235  0.94509043     0.35900
C1816       C  0.01553603  0.50568080  0.97426698    -0.06300
C1817       C  0.04674941  0.50341004  0.99505466    -0.33300
C1818       C  0.07516862  0.48400316  0.98752119     0.35800
H1819       H  0.03815435  0.45292354  0.91637389     0.16100
O1820       O  0.98686993  0.49189298  0.92352291    -0.60800
H1821       H  0.04666870  0.51360588  0.01793649     0.16100
O1822       O  0.10566299  0.48372855  0.00837773    -0.60900
H1823       H  0.13469995  0.51417385  0.00560811     0.43100
H1824       H  0.96584562  0.45950488  0.91732805     0.43100
C1825       C  0.78894458  0.14047002  0.81678582    -0.06000
C1826       C  0.80780910  0.15354202  0.78740170    -0.33400
C1827       C  0.83250898  0.20029731  0.77744016     0.35900
C1828       C  0.83287070  0.23527737  0.79467738    -0.06300
C1829       C  0.80929426  0.22192850  0.82270286    -0.33300
C1830       C  0.78962808  0.17571830  0.83430123     0.35800
H1831       H  0.80986743  0.12819432  0.77366719     0.16100
O1832       O  0.85630458  0.21142467  0.75057709    -0.60800
H1833       H  0.80763720  0.24782438  0.83613018     0.16100
O1834       O  0.77471277  0.16621626  0.86361315    -0.60900
H1835       H  0.74220026  0.16084903  0.86338325     0.43100
H1836       H  0.88706718  0.21408996  0.75525309     0.43100
C1837       C  0.06607216  0.57254979  0.72008433    -0.06000
C1838       C  0.06892521  0.55831813  0.74973013    -0.33400
C1839       C  0.04176992  0.51123103  0.75945657     0.35900
C1840       C  0.01435284  0.47622921  0.73894227    -0.06300
C1841       C  0.01594622  0.49020383  0.70873929    -0.33300
C1842       C  0.03808259  0.53749597  0.69983956     0.35800
H1843       H  0.09132027  0.58394266  0.76566017     0.16100
O1844       O  0.04253621  0.49963586  0.78910008    -0.60800
H1845       H  0.99657760  0.46458011  0.69214248     0.16100
O1846       O  0.03278737  0.54892665  0.67087971    -0.60900
H1847       H  0.00115374  0.54577282  0.67031297     0.43100
H1848       H  0.02066244  0.50730697  0.79941731     0.43100
C1849       C  0.85111826  0.40857229  0.84145155    -0.06000
C1850       C  0.87848240  0.45374804  0.85155816    -0.33400
C1851       C  0.88689023  0.46243701  0.88205730     0.35900
C1852       C  0.86786079  0.42526686  0.90366237    -0.06300
C1853       C  0.83943916  0.37995027  0.89366031    -0.33300
C1854       C  0.83063777  0.37142013  0.86294572     0.35800
H1855       H  0.89406607  0.48287648  0.83569162     0.16100
O1856       O  0.91324025  0.50784082  0.89037022    -0.60800
H1857       H  0.82367842  0.35100597  0.90965939     0.16100
O1858       O  0.80313851  0.32642547  0.85426953    -0.60900
H1859       H  0.77045332  0.32042531  0.85560324     0.43100
H1860       H  0.94552011  0.51839722  0.88300759     0.43100
C1861       C  0.88932848  0.42467719  0.59209099    -0.06000
C1862       C  0.87870702  0.45018910  0.61229748    -0.33400
C1863       C  0.88796603  0.44994923  0.64308449     0.35900
C1864       C  0.90720489  0.42306856  0.65424170    -0.06300
C1865       C  0.92032090  0.39982412  0.63372131    -0.33300
C1866       C  0.91227065  0.40113441  0.60287497     0.35800
H1867       H  0.86197102  0.46942507  0.60427317     0.16100
O1868       O  0.87518043  0.47353874  0.66222614    -0.60800
H1869       H  0.93499188  0.37874761  0.64183715     0.16100
O1870       O  0.92337992  0.37608532  0.58389035    -0.60900
H1871       H  0.95597075  0.39779566  0.57712106     0.43100
H1872       H  0.84188631  0.45161592  0.66746767     0.43100
C1873       C  0.73229597  0.57056357  0.79220162    -0.06000
C1874       C  0.77411699  0.58499006  0.77592711    -0.33400
C1875       C  0.81864656  0.60753879  0.78954898     0.35900
C1876       C  0.82276327  0.61813352  0.82025780    -0.06300
C1877       C  0.78045952  0.60184203  0.83685401    -0.33300
C1878       C  0.73596454  0.57786795  0.82324562     0.35800
H1879       H  0.77210280  0.57826368  0.75236991     0.16100
O1880       O  0.85791864  0.62133944  0.77215118    -0.60800
H1881       H  0.78188967  0.60938900  0.86045914     0.16100
O1882       O  0.69625845  0.56226165  0.84049476    -0.60900
H1883       H  0.68907565  0.53109451  0.84811867     0.43100
H1884       H  0.85985264  0.59280203  0.76930594     0.43100
C1885       C  0.49057821  0.50721741  0.73374487    -0.06000
C1886       C  0.47906113  0.49403509  0.70374423    -0.33400
C1887       C  0.43206223  0.46787892  0.69445896     0.35900
C1888       C  0.39504386  0.46073521  0.71367538    -0.06300
C1889       C  0.40659828  0.47818481  0.74285720    -0.33300
C1890       C  0.45328055  0.49918730  0.75325851     0.35800
H1891       H  0.50643643  0.50086181  0.68783119     0.16100
O1892       O  0.42285066  0.45092018  0.66600445    -0.60800
H1893       H  0.37911250  0.47475647  0.75784280     0.16100
O1894       O  0.46193066  0.51084743  0.78281088    -0.60900
H1895       H  0.47536739  0.54501783  0.78287366     0.43100
H1896       H  0.41924840  0.41947098  0.66794408     0.43100
C1897       C  0.71663053  0.46904254  0.69891528    -0.06000
C1898       C  0.70665055  0.42404175  0.69199164    -0.33400
C1899       C  0.73509325  0.40721418  0.70333605     0.35900
C1900       C  0.77638985  0.43745967  0.71843305    -0.06300
C1901       C  0.79240933  0.48542676  0.71711829    -0.33300
C1902       C  0.76293955  0.50147569  0.70616080     0.35800
H1903       H  0.67285238  0.39981894  0.68292201     0.16100
O1904       O  0.72173199  0.36125343  0.70029430    -0.60800
H1905       H  0.82629718  0.50994623  0.72609294     0.16100
O1906       O  0.77759017  0.54793214  0.70596551    -0.60900
H1907       H  0.78858102  0.55907111  0.68513984     0.43100
H1908       H  0.70137881  0.34495810  0.71795585     0.43100
C1909       C  0.40542007  0.23957225  0.55346428    -0.06000
C1910       C  0.38851696  0.20020087  0.53545526    -0.33400
C1911       C  0.36320116  0.15444621  0.54771903     0.35900
C1912       C  0.35149468  0.14649563  0.57861999    -0.06300
C1913       C  0.36995906  0.18603821  0.59680502    -0.33300
C1914       C  0.39726968  0.23171026  0.58467248     0.35800
H1915       H  0.39546334  0.20479252  0.01150683     0.16100
O1916       O  0.34778253  0.11792996  0.52877843    -0.60800
H1917       H  0.36169395  0.18162932  0.62057650     0.16100
O1918       O  0.41486494  0.26848566  0.60355849    -0.60900
H1919       H  0.39113538  0.27863555  0.60382893     0.43100
H1920       H  0.36766173  0.10402921  0.03231330     0.43100
C1921       C  0.66486668  0.43615298  0.48263996    -0.06000
C1922       C  0.67508039  0.40796368  0.46483842    -0.33400
C1923       C  0.71705596  0.42812202  0.94770808     0.35900
C1924       C  0.75161034  0.47422513  0.95291176    -0.06300
C1925       C  0.73692471  0.50404992  0.96374172    -0.33300
C1926       C  0.69460596  0.48559976  0.97962145     0.35800
H1927       H  0.65169564  0.37086367  0.46472141     0.16100
O1928       O  0.72866474  0.39968546  0.93266745    -0.60800
H1929       H  0.76178061  0.54072975  0.96526841     0.16100
O1930       O  0.68463324  0.51553419  0.99430556    -0.60900
H1931       H  0.66853388  0.52513260  0.97929674     0.43100
H1932       H  0.71071902  0.39200437  0.41427740     0.43100
C1933       C  0.45352016  0.47219352  0.98799310    -0.06000
C1934       C  0.46213219  0.50752939  0.00835250    -0.33400
C1935       C  0.48194356  0.55469140  0.99870659     0.35900
C1936       C  0.49683408  0.56810430  0.96862249    -0.06300
C1937       C  0.48647088  0.53281027  0.94834027    -0.33300
C1938       C  0.46234722  0.48562192  0.95726869     0.35800
H1939       H  0.45723325  0.49914344  0.03217188     0.16100
O1940       O  0.48830628  0.58754814  0.01909078    -0.60800
H1941       H  0.49729354  0.54206254  0.92515834     0.16100
O1942       O  0.45494668  0.45333702  0.93618209    -0.60900
H1943       H  0.42059259  0.43182307  0.93613365     0.43100
H1944       H  0.51936969  0.59724138  0.02811064     0.43100
C1945       C  0.54345692  0.42640248  0.59816573    -0.06000
C1946       C  0.55476713  0.47116813  0.60652771    -0.33400
C1947       C  0.55445304  0.48114210  0.63670743     0.35900
C1948       C  0.54090366  0.44568151  0.65882856    -0.06300
C1949       C  0.52575560  0.40014416  0.65036903    -0.33300
C1950       C  0.52754538  0.39039112  0.62024022     0.35800
H1951       H  0.56624881  0.49904780  0.58982633     0.16100
O1952       O  0.56902457  0.52599049  0.64454769    -0.60800
H1953       H  0.51600965  0.37281904  0.66731986     0.16100
O1954       O  0.51386565  0.34565925  0.61264704    -0.60900
H1955       H  0.54121949  0.34156544  0.61704361     0.43100
H1956       H  0.60378549  0.54187190  0.64440571     0.43100
C1957       C  0.54271396  0.42555788  0.91068829    -0.06000
C1958       C  0.50449552  0.41081585  0.89100604    -0.33400
C1959       C  0.51027801  0.41044811  0.85999822     0.35900
C1960       C  0.55508522  0.42519127  0.84775021    -0.06300
C1961       C  0.59352457  0.44095824  0.86734750    -0.33300
C1962       C  0.58773412  0.44156593  0.89843430     0.35800
H1963       H  0.46933776  0.39811188  0.89966472     0.16100
O1964       O  0.47159329  0.39481263  0.84206195    -0.60800
H1965       H  0.62839732  0.45245172  0.85862821     0.16100
O1966       O  0.62594215  0.45541563  0.91658509    -0.60900
H1967       H  0.63998249  0.48955093  0.91791392     0.43100
H1968       H  0.45869626  0.36076946  0.84111766     0.43100
C1969       C  0.40487026  0.13427463  0.79603065    -0.06000
C1970       C  0.41390864  0.15698011  0.82368905    -0.33400
C1971       C  0.38523818  0.17453250  0.83440807     0.35900
C1972       C  0.34964422  0.17420186  0.81627032    -0.06300
C1973       C  0.34503066  0.15642920  0.78720535    -0.33300
C1974       C  0.36924428  0.13362074  0.77817883     0.35800
H1975       H  0.44194019  0.15919869  0.83765531     0.16100
O1976       O  0.38952746  0.18803696  0.86359164    -0.60800
H1977       H  0.31707214  0.15370959  0.77299594     0.16100
O1978       O  0.35806106  0.11116526  0.75142490    -0.60900
H1979       H  0.32945817  0.08085512  0.75570801     0.43100
H1980       H  0.41130535  0.22206012  0.86279038     0.43100
C1981       C  0.75401481  0.24316347  0.70049581    -0.06000
C1982       C  0.71662609  0.24913905  0.69076607    -0.33400
C1983       C  0.67236079  0.22183203  0.70373780     0.35900
C1984       C  0.66457743  0.18522468  0.72371023    -0.06300
C1985       C  0.69880923  0.17187261  0.72638531    -0.33300
C1986       C  0.74346629  0.20030834  0.71397484     0.35800
H1987       H  0.72366102  0.28049624  0.67837991     0.16100
O1988       O  0.63760293  0.23221228  0.69770415    -0.60800
H1989       H  0.69200357  0.14140580  0.73974901     0.16100
O1990       O  0.77801289  0.18958297  0.71934802    -0.60900
H1991       H  0.78205067  0.17728897  0.70023083     0.43100
H1992       H  0.64274063  0.25688257  0.71186723     0.43100
C1993       C  0.51468548  0.90779298  0.71782056    -0.06000
C1994       C  0.50293462  0.90593072  0.74844081    -0.33400
C1995       C  0.48236184  0.93142663  0.75954435     0.35900
C1996       C  0.46877413  0.95674598  0.73988729    -0.06300
C1997       C  0.47699889  0.95528888  0.70898164    -0.33300
C1998       C  0.50231635  0.93411524  0.69830851     0.35800
H1999       H  0.51050810  0.88518310  0.76411722     0.16100
O2000       O  0.47541160  0.93115725  0.78987861    -0.60800
H2001       H  0.46695725  0.97370185  0.69303397     0.16100
O2002       O  0.51442007  0.93912538  0.66852365    -0.60900
H2003       H  0.54289962  0.97017002  0.66643402     0.43100
H2004       H  0.50675664  0.95262471  0.79812478     0.43100
C2005       C  0.49755907  0.22134145  0.70906366    -0.06000
C2006       C  0.54165563  0.25899851  0.70105436    -0.33400
C2007       C  0.55697043  0.30211453  0.71360004     0.35900
C2008       C  0.52638790  0.30926813  0.73167593    -0.06300
C2009       C  0.47904503  0.27464417  0.73380338    -0.33300
C2010       C  0.46441010  0.23067944  0.72226226     0.35800
H2011       H  0.56703614  0.25311141  0.68940509     0.16100
O2012       O  0.60236970  0.33657608  0.70887241    -0.60800
H2013       H  0.45419068  0.28077943  0.74591041     0.16100
O2014       O  0.41920195  0.19605582  0.72698754    -0.60900
H2015       H  0.40300687  0.19399560  0.70781087     0.43100
H2016       H  0.62059759  0.33170365  0.72490454     0.43100
C2017       C  0.82322212  0.17512836  0.57547702    -0.06000
C2018       C  0.81488576  0.17018764  0.54442921    -0.33400
C2019       C  0.76890946  0.14709216  0.53292323     0.35900
C2020       C  0.72941555  0.13219545  0.55195674    -0.06300
C2021       C  0.73789936  0.14091408  0.58280414    -0.33300
C2022       C  0.78373270  0.16067828  0.59460387     0.35800
H2023       H  0.84401009  0.18085571  0.52901385     0.16100
O2024       O  0.76312456  0.13991454  0.50271907    -0.60800
H2025       H  0.70869893  0.13134662  0.59800186     0.16100
O2026       O  0.78930591  0.16399070  0.62511562    -0.60900
H2027       H  0.79974976  0.19688656  0.62936714     0.43100
H2028       H  0.76091345  0.10934113  0.49989026     0.43100
C2029       C  0.50308122  0.25499678  0.95777657    -0.06000
C2030       C  0.47097781  0.21002620  0.46786477    -0.33400
C2031       C  0.48772993  0.18401502  0.48308147     0.35900
C2032       C  0.53674474  0.20115131  0.48486124    -0.06300
C2033       C  0.56725236  0.24050065  0.96752072    -0.33300
C2034       C  0.54974083  0.26614901  0.95248842     0.35800
H2035       H  0.43405513  0.19909373  0.46965173     0.16100
O2036       O  0.45595830  0.14371212  0.49774968    -0.60800
H2037       H  0.60444096  0.25283988  0.96679204     0.16100
O2038       O  0.58042964  0.30775967  0.93878666    -0.60900
H2039       H  0.58259091  0.30019575  0.91769478     0.43100
H2040       H  0.45290851  0.15321344  0.51816068     0.43100
C2041       C  0.40083472  0.90118051  0.96285234    -0.06000
C2042       C  0.41540152  0.89178949  0.99078167    -0.33400
C2043       C  0.46227258  0.91885068  0.00077541     0.35900
C2044       C  0.49702779  0.95389305  0.98199110    -0.06300
C2045       C  0.48290716  0.95883984  0.95274211    -0.33300
C2046       C  0.43558102  0.93533366  0.94396044     0.35800
H2047       H  0.38938584  0.86593840  0.50568415     0.16100
O2048       O  0.47211989  0.91507996  0.53032144    -0.60800
H2049       H  0.50767253  0.98651007  0.93807341     0.16100
O2050       O  0.42378052  0.94597433  0.91654627    -0.60900
H2051       H  0.41653783  0.97106099  0.92037104     0.43100
H2052       H  0.48916568  0.89746179  0.52960960     0.43100
C2053       C  0.53839369  0.08038757  0.59848926    -0.06000
C2054       C  0.49216467  0.05285042  0.60883875    -0.33400
C2055       C  0.48267906  0.04465206  0.63965445     0.35900
C2056       C  0.51987597  0.06237687  0.66032481    -0.06300
C2057       C  0.56612761  0.08607269  0.64981387    -0.33300
C2058       C  0.57557453  0.09595069  0.61917229     0.35800
H2059       H  0.46328611  0.04016595  0.59323210     0.16100
O2060       O  0.43694344  0.02059369  0.64951479    -0.60800
H2061       H  0.59492289  0.10030205  0.66551655     0.16100
O2062       O  0.62135748  0.12143710  0.60970240    -0.60900
H2063       H  0.63063899  0.15425077  0.61335273     0.43100
H2064       H  0.42567531  0.04332825  0.64855634     0.43100
C2065       C  0.55001712  0.09059740  0.91017402    -0.06000
C2066       C  0.53653395  0.12156712  0.89824544    -0.33400
C2067       C  0.53846431  0.13042984  0.86719322     0.35900
C2068       C  0.55371199  0.10773111  0.84731983    -0.06300
C2069       C  0.56619149  0.07613093  0.85927674    -0.33300
C2070       C  0.56434806  0.06727025  0.89014690     0.35800
H2071       H  0.52579440  0.14007087  0.91304700     0.16100
O2072       O  0.52446427  0.16072478  0.85660906    -0.60800
H2073       H  0.57753734  0.05794071  0.84464299     0.16100
O2074       O  0.57809316  0.03658397  0.90047151    -0.60900
H2075       H  0.55397963  0.00568994  0.89341017     0.43100
H2076       H  0.55260293  0.19199417  0.85791046     0.43100
C2077       C  0.71330424  0.22016282  0.95666856    -0.06000
C2078       C  0.69628181  0.25230865  0.45358598    -0.33400
C2079       C  0.71988887  0.29544254  0.46739312     0.35900
C2080       C  0.76380566  0.30956157  0.48050982    -0.06300
C2081       C  0.78559527  0.28229979  0.97530583    -0.33300
C2082       C  0.76099250  0.23860040  0.96267761     0.35800
H2083       H  0.66032116  0.23934043  0.44679109     0.16100
O2084       O  0.69816063  0.32130407  0.46993810    -0.60800
H2085       H  0.82094368  0.29391299  0.98298304     0.16100
O2086       O  0.78091394  0.21088938  0.96212444    -0.60900
H2087       H  0.78860124  0.21026582  0.94072220     0.43100
H2088       H  0.68183138  0.31204169  0.48967812     0.43100
loop_ 
_geom_bond_atom_site_label_1 
_geom_bond_atom_site_label_2 
_geom_bond_distance 
_geom_bond_site_symmetry_2 
_ccdc_geom_bond_type 
O1           C16   1.269       .  A
O1        Al1053   1.904       .  S
C2           O12   1.257       .  A
C2         O1047   1.251       .  A
C2         C1033   1.458       .  S
O3         C1046   1.251   1_554  A
O3           Al5   1.845       .  S
O4            C6   1.258       .  A
O4           Al5   1.940       .  S
Al5          O13   1.898       .  S
Al5          O15   1.919       .  S
Al5          O14   1.779       .  S
C6           O19   1.242       .  A
C6          C988   1.481   1_554  S
O7           C17   1.280       .  A
O7           Al9   1.948       .  S
O8           C21   1.285   1_545  A
O8          Al18   1.996       .  S
Al9          O22   1.798       .  S
Al9        O1045   1.905       .  S
Al9        O1063   1.869       .  S
Al9        O1058   1.783       .  S
O10          C17   1.263       .  A
O10         Al18   1.885       .  S
O11        C1064   1.279       .  A
O11         Al18   1.973       .  S
O12         Al18   1.920       .  S
O13          C20   1.263       .  A
O14       Al1053   1.783       .  S
O14       Al1062   1.787   1_554  S
O15          C16   1.270       .  A
C16        C1009   1.473       .  S
C17        C1021   1.485       .  S
Al18       O1058   1.787       .  S
O19       Al1053   1.870       .  S
C20        O1055   1.280       .  A
C20         C976   1.512       .  S
C21          O22   1.238   1_565  A
C21        C1000   1.490       .  S
O23          C38   1.291       .  A
O23         Al31   1.957       .  S
C24          O34   1.241       .  A
C24          O25   1.256       .  A
C24         C940   1.461       .  S
O25         Al27   1.902       .  S
O26          C28   1.249       .  A
O26         Al27   1.864       .  S
Al27         O35   1.868       .  S
Al27         O37   1.940       .  S
Al27         O36   1.755       .  S
C28          O41   1.267       .  A
C28         C961   1.473       .  S
O29          C39   1.262       .  A
O29         Al31   1.851       .  S
O30          C43   1.241   1_545  A
O30         Al40   1.866       .  S
Al31         O44   2.030       .  S
Al31         O41   1.974       .  S
Al31         O36   1.809       .  S
O32          C39   1.281       .  A
O32         Al40   1.966       .  S
O33          C42   1.271       .  A
O33         Al40   1.926       .  S
O34         Al40   1.846       .  S
O35          C42   1.257       .  A
O36         Al40   1.769       .  S
O37          C38   1.273       .  A
C38         C925   1.503       .  S
C39        C1012   1.464       .  S
C42        C1024   1.485       .  S
C43          O44   1.273   1_565  A
C43         C952   1.528       .  S
O45          C60   1.268       .  A
O45       Al1097   1.887       .  S
C46          O56   1.257       .  A
C46        O1091   1.251       .  A
C46         C985   1.454       .  S
O47        C1090   1.251       .  A
O47         Al49   1.835   1_556  S
O48          C50   1.256       .  A
O48         Al49   1.941       .  S
Al49         O57   1.907       .  S
Al49         O59   1.925       .  S
Al49       O1102   1.776       .  S
C50          O63   1.241       .  A
C50         C877   1.481   1_554  S
O51          C61   1.277       .  A
O51         Al53   1.930       .  S
O52          C65   1.281       .  A
O52         Al62   1.992       .  S
Al53         O66   1.805       .  S
Al53       O1089   1.886       .  S
Al53       O1107   1.871       .  S
Al53         O58   1.784       .  S
O54          C61   1.271       .  A
O54         Al62   1.911       .  S
O55        C1108   1.279       .  A
O55         Al62   1.976       .  S
O56         Al62   1.915       .  S
O57          C64   1.264       .  A
O58         Al62   1.784       .  S
O58       Al1093   1.776       .  S
O59          C60   1.272       .  A
C60         C901   1.472       .  S
C61         C913   1.487       .  S
O63       Al1097   1.871       .  S
C64        O1099   1.280       .  A
C64         C865   1.512       .  S
C65          O66   1.239       .  A
C65         C889   1.483       .  S
O67          C82   1.287       .  A
O67         Al75   1.964       .  S
C68          O78   1.242       .  A
C68          O69   1.258       .  A
C68         C964   1.465       .  S
O69         Al71   1.910       .  S
O70          C72   1.255       .  A
O70         Al71   1.864       .  S
Al71         O79   1.882       .  S
Al71         O81   1.924       .  S
Al71         O80   1.758       .  S
C72          O85   1.266       .  A
C72         C853   1.471       .  S
O73          C83   1.259       .  A
O73         Al75   1.851       .  S
O74          C87   1.241       .  A
O74         Al84   1.868       .  S
Al75         O88   2.009       .  S
Al75         O85   1.954       .  S
Al75         O80   1.807       .  S
O76          C83   1.277       .  A
O76         Al84   1.953       .  S
O77          C86   1.268       .  A
O77         Al84   1.924       .  S
O78         Al84   1.850       .  S
O79          C86   1.260       .  A
O80         Al84   1.775       .  S
O81          C82   1.268       .  A
C82         C829   1.499       .  S
C83         C904   1.460       .  S
C86         C916   1.488       .  S
C87          O88   1.270       .  A
C87         C841   1.513       .  S
O89         C104   1.289       .  A
O89         Al97   1.960       .  S
C90         O100   1.242       .  A
C90          O91   1.257       .  A
C90         C856   1.464       .  S
O91         Al93   1.903       .  S
O92          C94   1.254       .  A
O92         Al93   1.865       .  S
Al93        O101   1.872       .  S
Al93        O103   1.921       .  S
Al93        O102   1.760       .  S
C94         O107   1.265       .  A
C94         C937   1.467       .  S
O95         C105   1.262       .  A
O95         Al97   1.863       .  S
O96         C109   1.240       .  A
O96        Al106   1.872       .  S
Al97        O110   2.009       .  S
Al97        O107   1.952       .  S
Al97        O102   1.807       .  S
O98         C105   1.282       .  A
O98        Al106   1.973       .  S
O99         C108   1.272       .  A
O99        Al106   1.932       .  S
O100       Al106   1.849       .  S
O101        C108   1.257       .  A
O102       Al106   1.769       .  S
O103        C104   1.268       .  A
C104        C784   1.498       .  S
C105        C820   1.484       .  S
C108        C805   1.487       .  S
C109        O110   1.270       .  A
C109        C796   1.509   1_655  S
O111        C126   1.273       .  A
O111      Al1163   1.914   1_554  S
C112        O122   1.257       .  A
C112       O1157   1.253       .  A
C112        C880   1.456       .  S
O113       C1156   1.253       .  A
O113       Al115   1.849   1_556  S
O114        C116   1.256   1_554  A
O114       Al115   1.946       .  S
Al115       O123   1.888       .  S
Al115       O125   1.937       .  S
Al115       O124   1.772   1_554  S
C116        O129   1.242   1_556  A
C116       C1036   1.482       .  S
O117        C127   1.279       .  A
O117       Al119   1.949       .  S
O118        C131   1.285       .  A
O118       Al128   1.999       .  S
Al119       O132   1.811       .  S
Al119      O1155   1.916       .  S
Al119      O1173   1.868       .  S
Al119      O1168   1.781       .  S
O120        C127   1.266       .  A
O120       Al128   1.893       .  S
O121        C130   1.280       .  A
O121      Al1172   1.978   1_554  S
O122       Al128   1.914       .  S
O123        C130   1.262       .  A
O124      Al1163   1.782       .  S
O124      Al1172   1.786       .  S
O125        C126   1.275       .  A
C126        C817   1.485       .  S
C127        C808   1.491       .  S
Al128      O1165   1.980       .  S
Al128      O1168   1.786       .  S
O129      Al1163   1.868   1_554  S
C130        C757   1.513       .  S
C131        O132   1.241       .  A
C131        C772   1.490   1_655  S
O133        C148   1.272       .  A
O133       Al141   1.914       .  S
C134        O144   1.260       .  A
C134        O135   1.251       .  A
C134        C745   1.461       .  S
O135       Al137   1.848       .  S
O136        C138   1.255       .  A
O136       Al137   1.920       .  S
Al137       O145   1.896       .  S
Al137       O147   1.914       .  S
Al137       O146   1.775       .  S
C138        O151   1.241       .  A
C138        C700   1.474       .  S
O139        C149   1.279       .  A
O139       Al141   1.948       .  S
O140        C153   1.287       .  A
O140       Al150   2.004       .  S
Al141       O154   1.804       .  S
Al141       O151   1.868       .  S
Al141       O146   1.788       .  S
O142        C149   1.267       .  A
O142       Al150   1.892       .  S
O143        C152   1.281       .  A
O143       Al150   1.986       .  S
O144       Al150   1.927       .  S
O145        C152   1.262       .  A
O146       Al150   1.786       .  S
O147        C148   1.270       .  A
C148        C721   1.475       .  S
C149        C733   1.487       .  S
C152        C949   1.520       .  S
C153        O154   1.238       .  A
C153        C712   1.492       .  S
O155        C170   1.289       .  A
O155       Al163   1.957       .  S
C156        O166   1.241       .  A
C156        O157   1.258       .  A
C156        C661   1.459       .  S
O157       Al159   1.906       .  S
O158        C160   1.255       .  A
O158       Al159   1.877       .  S
Al159       O167   1.877       .  S
Al159       O169   1.924       .  S
Al159       O168   1.761       .  S
C160        O173   1.265       .  A
C160        C685   1.469       .  S
O161        C171   1.261       .  A
O161       Al163   1.859       .  S
O162        C175   1.240       .  A
O162       Al172   1.868       .  S
Al163       O176   2.021       .  S
Al163       O173   1.947       .  S
Al163       O168   1.806       .  S
O164        C171   1.279       .  A
O164       Al172   1.961       .  S
O165        C174   1.268       .  A
O165       Al172   1.920       .  S
O166       Al172   1.840       .  S
O167        C174   1.258       .  A
O168       Al172   1.770       .  S
O169        C170   1.269       .  A
C170        C892   1.496       .  S
C171        C724   1.470       .  S
C174       C1780   1.486       .  S
C175        O176   1.271       .  A
C175        C673   1.517       .  S
O177        C192   1.286       .  A
O177       Al185   1.956       .  S
C178        O188   1.245       .  A
C178        O179   1.260       .  A
C178        C688   1.451       .  S
O179       Al181   1.910       .  S
O180        C182   1.257       .  A
O180       Al181   1.861       .  S
Al181       O189   1.854       .  S
Al181       O191   1.925       .  S
Al181       O190   1.753       .  S
C182        O195   1.273       .  A
C182        C649   1.472       .  S
O183        C193   1.256       .  A
O183       Al185   1.843       .  S
O184        C197   1.242       .  A
O184       Al194   1.863       .  S
Al185       O198   2.045       .  S
Al185       O195   1.970       .  S
Al185       O190   1.791       .  S
O186        C193   1.274       .  A
O186       Al194   1.961       .  S
O187        C196   1.269       .  A
O187       Al194   1.934       .  S
O188       Al194   1.854       .  S
O189        C196   1.256       .  A
O190       Al194   1.770       .  S
O191        C192   1.266       .  A
C192        C769   1.502       .  S
C193        C640   1.467       .  S
C196       C1672   1.470       .  S
C197        O198   1.281       .  A
C197        C613   1.521       .  S
O199        C214   1.268       .  A
O199       Al207   1.931       .  S
C200        O210   1.271       .  A
C200        O201   1.255       .  A
C200        C697   1.465       .  S
O201       Al203   1.854       .  S
O202        C204   1.262       .  A
O202       Al203   1.924       .  S
Al203       O211   1.927       .  S
Al203       O213   1.862       .  S
Al203       O212   1.751       .  S
C204        O217   1.248       .  A
C204        C589   1.462       .  S
O205        C215   1.273       .  A
O205       Al207   1.949       .  S
O206        C219   1.277       .  A
O206       Al216   2.021       .  S
Al207       O220   1.868       .  S
Al207       O217   1.864       .  S
Al207       O212   1.766       .  S
O208        C215   1.256       .  A
O208       Al216   1.849       .  S
O209        C218   1.281       .  A
O209       Al216   1.946       .  S
O210       Al216   1.962       .  S
O211        C218   1.267       .  A
O212       Al216   1.798       .  S
O213        C214   1.257       .  A
C214        C637   1.469       .  S
C215        C625   1.461       .  S
C218        C844   1.497       .  S
C219        O220   1.244       .  A
C219        C604   1.507       .  S
O221        C236   1.267       .  A
O221       Al229   1.895       .  S
C222        O232   1.261       .  A
C222        O223   1.248       .  A
C222        C592   1.461       .  S
O223       Al225   1.836       .  S
O224        C226   1.255       .  A
O224       Al225   1.933       .  S
Al225       O233   1.904       .  S
Al225       O235   1.924       .  S
Al225       O234   1.775       .  S
C226        O239   1.240       .  A
C226        C748   1.482       .  S
O227        C237   1.278       .  A
O227       Al229   1.932       .  S
O228        C241   1.276       .  A
O228       Al238   1.987       .  S
Al229       O242   1.782       .  S
Al229       O239   1.865       .  S
Al229       O234   1.791       .  S
O230        C237   1.268       .  A
O230       Al238   1.898       .  S
O231        C240   1.276       .  A
O231       Al238   1.945       .  S
O232       Al238   1.931       .  S
O233        C240   1.265       .  A
O234       Al238   1.792       .  S
O235        C236   1.271       .  A
C236        C565   1.469       .  S
C237        C580   1.481       .  S
C240        C793   1.507       .  S
C241        O242   1.234       .  A
C241        C553   1.478       .  S
O243        C258   1.289       .  A
O243       Al251   1.967       .  S
C244        O254   1.244       .  A
C244        O245   1.257       .  A
C244        C652   1.465       .  S
O245       Al247   1.901       .  S
O246        C248   1.257       .  A
O246       Al247   1.861       .  S
Al247       O255   1.861       .  S
Al247       O257   1.911       .  S
Al247       O256   1.760       .  S
C248        O261   1.266       .  A
C248        C664   1.463       .  S
O249        C259   1.258       .  A
O249       Al251   1.853       .  S
O250        C263   1.243       .  A
O250       Al260   1.865       .  S
Al251       O264   2.016       .  S
Al251       O261   1.946       .  S
Al251       O256   1.802       .  S
O252        C259   1.276       .  A
O252       Al260   1.963       .  S
O253        C262   1.272       .  A
O253       Al260   1.939       .  S
O254       Al260   1.860       .  S
O255        C262   1.257       .  A
O256       Al260   1.774       .  S
O257        C258   1.264       .  A
C258        C997   1.502       .  S
C259        C568   1.473       .  S
C262       C1621   1.485       .  S
C263        O264   1.274       .  A
C263        C544   1.520       .  S
O265        C280   1.268       .  A
O265       Al273   1.899       .  S
C266        O276   1.258       .  A
C266        O267   1.251       .  A
C266        C529   1.459       .  S
O267       Al269   1.844       .  S
O268        C270   1.257       .  A
O268       Al269   1.935       .  S
Al269       O277   1.901       .  S
Al269       O279   1.921       .  S
Al269       O278   1.777       .  S
C270        O283   1.243       .  A
C270        C493   1.480   1_545  S
O271        C281   1.278       .  A
O271       Al273   1.947       .  S
O272        C285   1.284       .  A
O272       Al282   1.996       .  S
Al273       O286   1.803       .  S
Al273       O283   1.875       .  S
Al273       O278   1.789       .  S
O274        C281   1.266       .  A
O274       Al282   1.888       .  S
O275        C284   1.280       .  A
O275       Al282   1.976       .  S
O276       Al282   1.924       .  S
O277        C284   1.265       .  A
O278       Al282   1.786       .  S
O279        C280   1.271       .  A
C280        C505   1.475       .  S
C281        C517   1.485       .  S
C284        C616   1.513       .  S
C285        O286   1.239       .  A
C285        C928   1.491       .  S
O287        C302   1.289       .  A
O287       Al295   1.956   1_565  S
C288        O298   1.244       .  A
C288        O289   1.255       .  A
C288        C469   1.462       .  S
O289       Al291   1.896       .  S
O290        C292   1.253       .  A
O290       Al291   1.877   1_565  S
Al291       O299   1.872       .  S
Al291       O301   1.913   1_545  S
Al291       O300   1.764       .  S
C292        O305   1.266       .  A
C292        C481   1.469       .  S
O293        C303   1.262       .  A
O293       Al295   1.855       .  S
O294        C307   1.242       .  A
O294       Al304   1.866       .  S
Al295       O308   2.018       .  S
Al295       O305   1.958   1_545  S
Al295       O300   1.806       .  S
O296        C303   1.279       .  A
O296       Al304   1.964       .  S
O297        C306   1.270       .  A
O297       Al304   1.928       .  S
O298       Al304   1.855       .  S
O299        C306   1.257       .  A
O300       Al304   1.774       .  S
O301        C302   1.267       .  A
C302        C556   1.493       .  S
C303       C1552   1.465   1_554  S
C306        C520   1.488       .  S
C307        O308   1.272       .  A
C307        C868   1.523       .  S
O309        C324   1.268       .  A
O309       Al317   1.926       .  S
C310        O320   1.273       .  A
C310        O311   1.255   1_455  A
C310        C496   1.471       .  S
O311       Al313   1.865       .  S
O312        C314   1.261       .  A
O312       Al313   1.918       .  S
Al313       O321   1.940   1_655  S
Al313       O323   1.870       .  S
Al313       O322   1.753       .  S
C314        O327   1.246       .  A
C314        C433   1.465       .  S
O315        C325   1.274       .  A
O315       Al317   1.954       .  S
O316        C329   1.276       .  A
O316       Al326   2.023       .  S
Al317       O330   1.864       .  S
Al317       O327   1.861       .  S
Al317       O322   1.770       .  S
O318        C325   1.259       .  A
O318       Al326   1.851       .  S
O319        C328   1.283   1_655  A
O319       Al326   1.958       .  S
O320       Al326   1.973   1_455  S
O321        C328   1.270       .  A
O322       Al326   1.799       .  S
O323        C324   1.259       .  A
C324        C445   1.479       .  S
C325        C457   1.463       .  S
C328        C541   1.503       .  S
C329        O330   1.243       .  A
C329        C832   1.518       .  S
O331        C346   1.289       .  A
O331       Al339   1.967       .  S
C332        O342   1.243       .  A
C332        O333   1.259       .  A
C332        C484   1.455       .  S
O333       Al335   1.911       .  S
O334        C336   1.254       .  A
O334       Al335   1.863       .  S
Al335       O343   1.858       .  S
Al335       O345   1.923       .  S
Al335       O344   1.752       .  S
C336        O349   1.270       .  A
C336        C421   1.469       .  S
O337        C347   1.258       .  A
O337       Al339   1.849       .  S
O338        C351   1.240       .  A
O338       Al348   1.862       .  S
Al339       O352   2.038       .  S
Al339       O349   1.964       .  S
Al339       O344   1.804       .  S
O340        C347   1.276       .  A
O340       Al348   1.960       .  S
O341        C350   1.268       .  A
O341       Al348   1.925       .  S
O342       Al348   1.853       .  S
O343        C350   1.257       .  A
O344       Al348   1.771       .  S
O345        C346   1.267       .  A
C346        C709   1.505       .  S
C347       C1492   1.464   1_554  S
C350        C460   1.469       .  S
C351        O352   1.277       .  A
C351        C760   1.520       .  S
O353        C368   1.266       .  A
O353       Al361   1.892       .  S
C354        O364   1.257       .  A
C354        O355   1.252       .  A
C354        C436   1.460       .  S
O355       Al357   1.857   1_565  S
O356        C358   1.255       .  A
O356       Al357   1.931       .  S
Al357       O365   1.894   1_545  S
Al357       O367   1.930       .  S
Al357       O366   1.777       .  S
C358        O371   1.244       .  A
C358        C532   1.483       .  S
O359        C369   1.276       .  A
O359       Al361   1.929       .  S
O360        C373   1.282       .  A
O360       Al370   1.992       .  S
Al361       O374   1.801       .  S
Al361       O371   1.875       .  S
Al361       O366   1.789       .  S
O362        C369   1.268       .  A
O362       Al370   1.897       .  S
O363        C372   1.280       .  A
O363       Al370   1.972   1_565  S
O364       Al370   1.917   1_565  S
O365        C372   1.262       .  A
O366       Al370   1.791       .  S
O367        C368   1.273       .  A
C368        C397   1.475       .  S
C369        C409   1.480       .  S
C372        C676   1.513       .  S
C373        O374   1.238       .  A
C373        C781   1.488       .  S
O375        C390   1.285   1_655  A
O375       Al383   1.961       .  S
C376        O386   1.245       .  A
C376        O377   1.257       .  A
C376        C424   1.459   1_545  S
O377       Al379   1.900       .  S
O378        C380   1.256   1_655  A
O378       Al379   1.867       .  S
Al379       O387   1.865       .  S
Al379       O389   1.911   1_655  S
Al379       O388   1.759       .  S
C380        O393   1.269       .  A
C380        C472   1.464       .  S
O381        C391   1.258       .  A
O381       Al383   1.853       .  S
O382        C395   1.244       .  A
O382       Al392   1.869       .  S
Al383       O396   2.012       .  S
Al383       O393   1.955   1_655  S
Al383       O388   1.803       .  S
O384        C391   1.275       .  A
O384       Al392   1.956       .  S
O385        C394   1.272       .  A
O385       Al392   1.938       .  S
O386       Al392   1.863       .  S
O387        C394   1.258       .  A
O388       Al392   1.772       .  S
O389        C390   1.264       .  A
C390        C601   1.495       .  S
C391       C1444   1.468   1_554  S
C394        C412   1.484       .  S
C395        O396   1.275       .  A
C395        C973   1.515       .  S
C397        C398   1.407       .  A
C397        C402   1.407       .  A
C398        C399   1.399       .  A
C398        H403   1.084       .  S
C399        C400   1.404       .  A
C399        O404   1.371       .  S
C400       C1435   1.468       .  S
C400        C401   1.406       .  A
C401        C402   1.399       .  A
C401        H405   1.084       .  S
C402        O406   1.372       .  S
O404        H408   0.991       .  S
O406        H407   0.992       .  S
C409        C410   1.409       .  A
C409        C414   1.405       .  A
C410        C411   1.396       .  A
C410        H415   1.083       .  S
C411        C412   1.407       .  A
C411        O416   1.372       .  S
C412        C413   1.412       .  A
C413        C414   1.400       .  A
C413        H417   1.083       .  S
C414        O418   1.371       .  S
O416        H420   0.992       .  S
O418        H419   0.991       .  S
C421        C422   1.405       .  A
C421        C426   1.409       .  A
C422        C423   1.402       .  A
C422        H427   1.079       .  S
C423        C424   1.405       .  A
C423        O428   1.371       .  S
C424        C425   1.395       .  A
C425        C426   1.390       .  A
C425        H429   1.083   1_565  S
C426        O430   1.373       .  S
O428        H432   0.992       .  S
O430        H431   0.993       .  S
C433        C434   1.401       .  A
C433        C438   1.404       .  A
C434        C435   1.398       .  A
C434        H439   1.084       .  S
C435        C436   1.405       .  A
C435        O440   1.366       .  S
C436        C437   1.401       .  A
C437        C438   1.396       .  A
C437        H441   1.083       .  S
C438        O442   1.369       .  S
O440        H444   0.991       .  S
O442        H443   0.991       .  S
C445        C446   1.410       .  A
C445        C450   1.409       .  A
C446        C447   1.398       .  A
C446        H451   1.083       .  S
C447        C448   1.401       .  A
C447        O452   1.372       .  S
C448       C1391   1.464       .  S
C448        C449   1.404       .  A
C449        C450   1.397       .  A
C449        H453   1.084       .  S
C450        O454   1.372       .  S
O452        H456   0.992       .  S
O454        H455   0.992       .  S
C457        C458   1.406       .  A
C457        C462   1.403       .  A
C458        C459   1.395       .  A
C458        H463   1.084       .  S
C459        C460   1.404       .  A
C459        O464   1.371       .  S
C460        C461   1.408       .  A
C461        C462   1.395       .  A
C461        H465   1.083       .  S
C462        O466   1.372       .  S
O464        H468   0.992       .  S
O466        H467   0.992       .  S
C469        C470   1.399       .  A
C469        C474   1.406       .  A
C470        C471   1.392       .  A
C470        H475   1.081       .  S
C471        C472   1.407       .  A
C471        O476   1.371       .  S
C472        C473   1.401       .  A
C473        C474   1.398       .  A
C473        H477   1.077       .  S
C474        O478   1.372       .  S
O476        H480   0.991       .  S
O478        H479   0.992       .  S
C481        C482   1.404       .  A
C481        C486   1.406       .  A
C482        C483   1.399       .  A
C482        H487   1.073       .  S
C483        C484   1.401   1_455  A
C483        O488   1.371       .  S
C484        C485   1.395   1_655  A
C485        C486   1.394       .  A
C485        H489   1.080   1_455  S
C486        O490   1.373       .  S
O488        H492   0.991       .  S
O490        H491   0.991       .  S
C493        C494   1.402       .  A
C493        C498   1.416       .  A
C494        C495   1.398       .  A
C494        H499   1.078       .  S
C495        C496   1.407       .  A
C495        O500   1.370       .  S
C496        C497   1.395       .  A
C497        C498   1.398       .  A
C497        H501   1.075       .  S
C498        O502   1.371       .  S
O500        H504   0.991       .  S
O502        H503   0.992       .  S
C505        C506   1.407       .  A
C505        C510   1.406       .  A
C506        C507   1.398       .  A
C506        H511   1.084       .  S
C507        C508   1.403       .  A
C507        O512   1.371       .  S
C508       C1347   1.465       .  S
C508        C509   1.405       .  A
C509        C510   1.399       .  A
C509        H513   1.083       .  S
C510        O514   1.371       .  S
O512        H516   0.992       .  S
O514        H515   0.992       .  S
C517        C518   1.410       .  A
C517        C522   1.406       .  A
C518        C519   1.394       .  A
C518        H523   1.083       .  S
C519        C520   1.406       .  A
C519        O524   1.372       .  S
C520        C521   1.415       .  A
C521        C522   1.406       .  A
C521        H525   1.083       .  S
C522        O526   1.371       .  S
O524        H528   0.992       .  S
O526        H527   0.992   1_545  S
C529        C530   1.402       .  A
C529        C534   1.400       .  A
C530        C531   1.400       .  A
C530        H535   1.080       .  S
C531        C532   1.408   1_455  A
C531        O536   1.368   1_455  S
C532        C533   1.411   1_655  A
C533        C534   1.398       .  A
C533        H537   1.083       .  S
C534        O538   1.369       .  S
O536        H540   0.992       .  S
O538        H539   0.992       .  S
C541        C542   1.406       .  A
C541        C546   1.409       .  A
C542        C543   1.413       .  A
C542        H547   1.079       .  S
C543        C544   1.415       .  A
C543        O548   1.369       .  S
C544        C545   1.417       .  A
C545        C546   1.417       .  A
C545        H549   1.083       .  S
C546        O550   1.371       .  S
O548        H552   0.991       .  S
O550        H551   0.992       .  S
C553        C554   1.413       .  A
C553        C558   1.414       .  A
C554        C555   1.406       .  A
C554        H559   1.084       .  S
C555        C556   1.405       .  A
C555        O560   1.372       .  S
C556        C557   1.411       .  A
C557        C558   1.417       .  A
C557        H561   1.083       .  S
C558        O562   1.371       .  S
O560        H564   0.992       .  S
O562        H563   0.992       .  S
C565        C566   1.397       .  A
C565        C570   1.411       .  A
C566        C567   1.397       .  A
C566        H571   1.084       .  S
C567        C568   1.414       .  A
C567        O572   1.373       .  S
C568        C569   1.400       .  A
C569        C570   1.401       .  A
C569        H573   1.084       .  S
C570        O574   1.372       .  S
O572        H576   0.992       .  S
O574        H575   0.992       .  S
C577       C1306   1.485   1_554  S
C577        C578   1.412       .  A
C577        C582   1.407       .  A
C578        C579   1.400       .  A
C578        H583   1.083       .  S
C579        C580   1.404       .  A
C579        O584   1.371       .  S
C580        C581   1.410       .  A
C581        C582   1.397       .  A
C581        H585   1.084       .  S
C582        O586   1.372       .  S
O584        H588   0.991       .  S
O586        H587   0.992       .  S
C589        C590   1.401       .  A
C589        C594   1.402       .  A
C590        C591   1.399       .  A
C590        H595   1.083       .  S
C591        C592   1.405       .  A
C591        O596   1.370       .  S
C592        C593   1.403       .  A
C593        C594   1.398       .  A
C593        H597   1.075       .  S
C594        O598   1.371       .  S
O596        H600   0.992       .  S
O598        H599   0.991       .  S
C601        C602   1.407       .  A
C601        C606   1.411       .  A
C602        C603   1.411       .  A
C602        H607   1.084       .  S
C603        C604   1.415       .  A
C603        O608   1.371       .  S
C604        C605   1.409       .  A
C605        C606   1.413       .  A
C605        H609   1.080       .  S
C606        O610   1.371       .  S
O608        H612   0.992       .  S
O610        H611   0.991       .  S
C613        C614   1.416       .  A
C613        C618   1.415       .  A
C614        C615   1.415       .  A
C614        H619   1.084       .  S
C615        C616   1.412       .  A
C615        O620   1.372       .  S
C616        C617   1.411       .  A
C617        C618   1.418       .  A
C617        H621   1.080       .  S
C618        O622   1.370       .  S
O620        H624   0.990       .  S
O622        H623   0.992       .  S
C625        C626   1.393       .  A
C625        C630   1.411       .  A
C626        C627   1.394       .  A
C626        H631   1.084       .  S
C627        C628   1.415       .  A
C627        O632   1.370       .  S
C628       C1240   1.471   1_554  S
C628        C629   1.399       .  A
C629        C630   1.396       .  A
C629        H633   1.084       .  S
C630        O634   1.372       .  S
O632        H636   0.992       .  S
O634        H635   0.992       .  S
C637        C638   1.409       .  A
C637        C642   1.403       .  A
C638        C639   1.397       .  A
C638        H643   1.084       .  S
C639        C640   1.402       .  A
C639        O644   1.371       .  S
C640        C641   1.408       .  A
C641        C642   1.395       .  A
C641        H645   1.084       .  S
C642        O646   1.372       .  S
O644        H648   0.991       .  S
O646        H647   0.992       .  S
C649        C650   1.405       .  A
C649        C654   1.407       .  A
C650        C651   1.390       .  A
C650        H655   1.083       .  S
C651        C652   1.404       .  A
C651        O656   1.371       .  S
C652        C653   1.404       .  A
C653        C654   1.400       .  A
C653        H657   1.084       .  S
C654        O658   1.368       .  S
O656        H660   0.992       .  S
O658        H659   0.992       .  S
C661        C662   1.403       .  A
C661        C666   1.403       .  A
C662        C663   1.397       .  A
C662        H667   1.084       .  S
C663        C664   1.406       .  A
C663        O668   1.368       .  S
C664        C665   1.402       .  A
C665        C666   1.391       .  A
C665        H669   1.084       .  S
C666        O670   1.368       .  S
O668        H672   0.992       .  S
O670        H671   0.992       .  S
C673        C674   1.409       .  A
C673        C678   1.416       .  A
C674        C675   1.414       .  A
C674        H679   1.079       .  S
C675        C676   1.412       .  A
C675        O680   1.370       .  S
C676        C677   1.412       .  A
C677        C678   1.417       .  A
C677        H681   1.083       .  S
C678        O682   1.371       .  S
O680        H684   0.992       .  S
O682        H683   0.992       .  S
C685        C686   1.403       .  A
C685        C690   1.406       .  A
C686        C687   1.398       .  A
C686        H691   1.075       .  S
C687        C688   1.401       .  A
C687        O692   1.371       .  S
C688        C689   1.397       .  A
C689        C690   1.390       .  A
C689        H693   1.082       .  S
C690        O694   1.369       .  S
O692        H696   0.991       .  S
O694        H695   0.991       .  S
C697        C698   1.404       .  A
C697        C702   1.402       .  A
C698        C699   1.391       .  A
C698        H703   1.084       .  S
C699        C700   1.403       .  A
C699        O704   1.364       .  S
C700        C701   1.407       .  A
C701        C702   1.395       .  A
C701        H705   1.083       .  S
C702        O706   1.367       .  S
O704        H708   0.992       .  S
O706        H707   0.992       .  S
C709        C710   1.405       .  A
C709        C714   1.414       .  A
C710        C711   1.414       .  A
C710        H715   1.083       .  S
C711        C712   1.418       .  A
C711        O716   1.370       .  S
C712        C713   1.413       .  A
C713        C714   1.419       .  A
C713        H717   1.084       .  S
C714        O718   1.371       .  S
O716        H720   0.991       .  S
O718        H719   0.992       .  S
C721        C722   1.400       .  A
C721        C726   1.413       .  A
C722        C723   1.401       .  A
C722        H727   1.084       .  S
C723        C724   1.413       .  A
C723        O728   1.371       .  S
C724        C725   1.396       .  A
C725        C726   1.397       .  A
C725        H729   1.084       .  S
C726        O730   1.370       .  S
O728        H732   0.992       .  S
O730        H731   0.992       .  S
C733        C734   1.411       .  A
C733        C738   1.406       .  A
C734        C735   1.394       .  A
C734        H739   1.082       .  S
C735        C736   1.406       .  A
C735        O740   1.372       .  S
C736       C1218   1.487   1_554  S
C736        C737   1.414       .  A
C737        C738   1.406       .  A
C737        H741   1.083       .  S
C738        O742   1.371       .  S
O740        H744   0.992       .  S
O742        H743   0.992       .  S
C745        C746   1.404       .  A
C745        C750   1.400       .  A
C746        C747   1.404       .  A
C746        H751   1.082       .  S
C747        C748   1.409       .  A
C747        O752   1.370       .  S
C748        C749   1.408       .  A
C749        C750   1.395       .  A
C749        H753   1.083       .  S
C750        O754   1.367       .  S
O752        H756   0.990       .  S
O754        H755   0.992       .  S
C757        C758   1.408       .  A
C757        C762   1.416       .  A
C758        C759   1.413       .  A
C758        H763   1.084       .  S
C759        C760   1.418       .  A
C759        O764   1.372       .  S
C760        C761   1.412       .  A
C761        C762   1.419       .  A
C761        H765   1.082       .  S
C762       O1810   1.370   1_554  S
O764        H768   0.992       .  S
O766       C1806   1.370       .  S
O766        H767   0.992       .  S
C769        C770   1.397       .  A
C769        C774   1.416       .  A
C770        C771   1.411       .  A
C770        H775   1.084       .  S
C771        C772   1.419       .  A
C771        O776   1.371   1_455  S
C772        C773   1.409       .  A
C773        C774   1.418       .  A
C773        H777   1.083       .  S
C774        O778   1.368       .  S
O776        H780   0.992       .  S
O778        H779   0.991       .  S
C781        C782   1.414       .  A
C781        C786   1.414       .  A
C782        C783   1.407       .  A
C782        H787   1.082       .  S
C783        C784   1.403       .  A
C783        O788   1.371       .  S
C784        C785   1.413       .  A
C785        C786   1.420       .  A
C785        H789   1.083       .  S
C786        O790   1.371       .  S
O788        H792   0.992       .  S
O790        H791   0.992       .  S
C793        C794   1.411       .  A
C793        C798   1.413       .  A
C794        C795   1.418       .  A
C794        H799   1.083       .  S
C795        C796   1.416       .  A
C795        O800   1.371       .  S
C796        C797   1.406       .  A
C797        C798   1.409       .  A
C797        H801   1.080   1_455  S
C798        O802   1.372       .  S
O800        H804   0.992       .  S
O802        H803   0.992       .  S
C805        C806   1.396       .  A
C805        C810   1.419       .  A
C806        C807   1.396       .  A
C806        H811   1.084       .  S
C807        C808   1.422       .  A
C807        O812   1.374       .  S
C808        C809   1.403       .  A
C809        C810   1.405       .  A
C809        H813   1.084       .  S
C810        O814   1.371       .  S
O812        H816   0.992       .  S
O814        H815   0.992       .  S
C817        C818   1.409       .  A
C817        C822   1.406       .  A
C818        C819   1.406       .  A
C818        H823   1.084       .  S
C819        C820   1.407       .  A
C819        O824   1.371       .  S
C820        C821   1.409       .  A
C821        C822   1.403       .  A
C821        H825   1.084       .  S
C822        O826   1.371       .  S
O824        H828   0.991       .  S
O826        H827   0.991       .  S
C829        C830   1.408       .  A
C829        C834   1.406       .  A
C830        C831   1.412       .  A
C830        H835   1.074       .  S
C831        C832   1.412       .  A
C831        O836   1.371       .  S
C832        C833   1.419       .  A
C833        C834   1.414       .  A
C833        H837   1.083       .  S
C834        O838   1.371       .  S
O836        H840   0.992       .  S
O838        H839   0.991       .  S
C841        C842   1.409       .  A
C841        C846   1.415       .  A
C842        C843   1.411       .  A
C842        H847   1.076       .  S
C843        C844   1.407       .  A
C843        O848   1.372       .  S
C844        C845   1.409       .  A
C845        C846   1.414       .  A
C845        H849   1.083       .  S
C846        O850   1.371       .  S
O848        H852   0.992       .  S
O850        H851   0.992       .  S
C853        C854   1.403       .  A
C853        C858   1.402       .  A
C854        C855   1.394       .  A
C854        H859   1.081       .  S
C855        C856   1.405       .  A
C855        O860   1.372       .  S
C856        C857   1.407       .  A
C857        C858   1.399       .  A
C857        H861   1.084       .  S
C858        O862   1.368       .  S
O860        H864   0.992       .  S
O862        H863   0.991       .  S
C865        C866   1.410       .  A
C865        C870   1.412       .  A
C866        C867   1.416       .  A
C866       H1915   1.081       .  S
C867        C868   1.415       .  A
C867        O872   1.369       .  S
C868        C869   1.416       .  A
C869        C870   1.418       .  A
C869        H873   1.083       .  S
C870        O874   1.371       .  S
H871       C1910   1.081       .  S
O872       H1920   0.991       .  S
O874        H875   0.992       .  S
H876       O1916   0.991       .  S
C877        C878   1.404       .  A
C877       C1926   1.419       .  A
C878       C1923   1.401       .  A
C878        H883   1.080       .  S
C879        C880   1.404       .  A
C879       C1922   1.403       .  A
C879        O884   1.371       .  S
C880        C881   1.395       .  A
C881        C882   1.396       .  A
C881        H885   1.081       .  S
C882       C1921   1.419       .  A
C882        O886   1.371       .  S
O884       H1932   0.992       .  S
O886        H887   0.992       .  S
H888       O1928   0.992       .  S
C889        C890   1.414       .  A
C889        C894   1.416       .  A
C890        C891   1.419       .  A
C890        H895   1.083       .  S
C891        C892   1.413       .  A
C891        O896   1.371       .  S
C892        C893   1.400       .  A
C893        C894   1.406       .  A
C893        H897   1.081       .  S
C894        O898   1.372       .  S
O896        H900   0.992       .  S
O898        H899   0.991       .  S
C901        C902   1.401       .  A
C901        C906   1.413       .  A
C902        C903   1.395       .  A
C902        H907   1.084       .  S
C903        C904   1.408       .  A
C903        O908   1.372       .  S
C904        C905   1.398       .  A
C905        C906   1.398       .  A
C905        H909   1.084       .  S
C906        O910   1.372       .  S
O908        H912   0.992       .  S
O910        H911   0.992       .  S
C913        C914   1.410       .  A
C913        C918   1.407       .  A
C914        C915   1.398       .  A
C914        H919   1.083       .  S
C915        C916   1.408       .  A
C915        O920   1.372       .  S
C916        C917   1.411       .  A
C917        C918   1.403       .  A
C917        H921   1.082       .  S
C918        O922   1.371       .  S
O920        H924   0.992       .  S
O922        H923   0.992       .  S
C925        C926   1.414       .  A
C925        C930   1.405       .  A
C926        C927   1.421       .  A
C926        H931   1.083       .  S
C927        C928   1.415       .  A
C927        O932   1.371       .  S
C928        C929   1.413       .  A
C929        C930   1.409       .  A
C929        H933   1.082       .  S
C930        O934   1.372       .  S
O932        H936   0.992       .  S
O934        H935   0.992       .  S
C937        C938   1.404       .  A
C937        C942   1.405       .  A
C938        C939   1.394       .  A
C938        H943   1.084       .  S
C939        C940   1.405       .  A
C939        O944   1.371       .  S
C940        C941   1.403       .  A
C941        C942   1.397       .  A
C941        H945   1.084       .  S
C942        O946   1.367       .  S
O944        H948   0.992       .  S
O946        H947   0.991       .  S
C949        C950   1.412       .  A
C949        C954   1.414       .  A
C950        C951   1.419       .  A
C950        H955   1.082       .  S
C951        C952   1.418       .  A
C951        O956   1.372       .  S
C952        C953   1.412       .  A
C953        C954   1.419       .  A
C953        H957   1.080       .  S
C954        O958   1.370       .  S
O956        H960   0.992       .  S
O958        H959   0.992       .  S
C961        C962   1.404       .  A
C961        C966   1.407       .  A
C962        C963   1.392       .  A
C962        H967   1.084       .  S
C963        C964   1.403       .  A
C963        O968   1.368       .  S
C964        C965   1.403       .  A
C965        C966   1.401       .  A
C965        H969   1.084       .  S
C966        O970   1.366       .  S
O968        H972   0.992       .  S
O970        H971   0.991       .  S
C973        C974   1.408       .  A
C973        C978   1.418       .  A
C974        C975   1.413       .  A
C974        H979   1.082       .  S
C975        C976   1.414       .  A
C975        O980   1.370       .  S
C976        C977   1.411       .  A
C977        C978   1.416       .  A
C977        H981   1.083       .  S
C978        O982   1.372       .  S
O980        H984   0.992       .  S
O982        H983   0.992       .  S
C985        C990   1.406       .  A
C985       C2030   1.394       .  A
C986        C987   1.397       .  A
C986       C2029   1.394       .  A
C986        H991   1.082       .  S
C987        C988   1.419       .  A
C987        O992   1.371       .  S
C988       C2033   1.403       .  A
C989        C990   1.401       .  A
C989       C2032   1.402       .  A
C989        H993   1.079       .  S
C990        O994   1.370       .  S
O992        H996   0.992   1_556  S
O994        H995   0.991       .  S
C997        C998   1.415       .  A
C997       C1002   1.404       .  A
C998        C999   1.420       .  A
C998       H2047   1.083       .  S
C999       C1000   1.414       .  A
C999       O2048   1.371       .  S
C1000      C1001   1.415       .  A
C1001      C1002   1.409       .  A
C1001      H1005   1.079       .  S
C1002      O1006   1.371       .  S
H1003      C2042   1.083   1_554  S
O1004      C2043   1.371       .  S
O1004      H1008   0.992       .  S
O1006      H1007   0.992       .  S
C1009      C1010   1.400       .  A
C1009      C1014   1.413       .  A
C1010      C1011   1.400       .  A
C1010      H1015   1.084       .  S
C1011      C1012   1.411       .  A
C1011      O1016   1.373       .  S
C1012      C1013   1.395       .  A
C1013      C1014   1.396       .  A
C1013      H1017   1.084       .  S
C1014      O1018   1.371       .  S
O1016      H1020   0.992       .  S
O1018      H1019   0.992       .  S
C1021      C1022   1.400       .  A
C1021      C1026   1.421       .  A
C1022      C1023   1.404       .  A
C1022      H1027   1.084       .  S
C1023      C1024   1.420       .  A
C1023      O1028   1.371       .  S
C1024      C1025   1.397       .  A
C1025      C1026   1.396       .  A
C1025      H1029   1.084       .  S
C1026      O1030   1.374       .  S
O1028      H1032   0.992       .  S
O1030      H1031   0.992       .  S
C1033      C1038   1.398       .  A
C1033      C2078   1.406       .  A
C1034      C1035   1.402       .  A
C1034      C2077   1.406       .  A
C1034      H1039   1.082       .  S
C1035      C1036   1.407       .  A
C1035      O1040   1.369       .  S
C1036      C2081   1.412       .  A
C1037      C1038   1.395       .  A
C1037      C2080   1.412       .  A
C1037      H1041   1.083       .  S
C1038      O1042   1.369       .  S
O1040      H1044   0.992       .  S
O1042      H1043   0.991       .  S
O1045      C1060   1.269       .  A
C1046      O1056   1.257       .  A
C1046      C2077   1.458       .  S
O1047     Al1049   1.843       .  S
O1048      C1050   1.257       .  A
O1048     Al1049   1.938       .  S
Al1049     O1057   1.898       .  S
Al1049     O1059   1.917       .  S
Al1049     O1058   1.779       .  S
C1050      O1063   1.242       .  A
C1050      C2032   1.480       .  S
O1051      C1061   1.280       .  A
O1051     Al1053   1.948   1_556  S
O1052      C1065   1.285   1_545  A
O1052     Al1062   1.997       .  S
Al1053     O1066   1.799   1_554  S
O1054      C1061   1.264       .  A
O1054     Al1062   1.885       .  S
O1055     Al1062   1.976   1_554  S
O1056     Al1062   1.919       .  S
O1057      C1064   1.263       .  A
O1059      C1060   1.270       .  A
C1060      C2053   1.474       .  S
C1061      C2065   1.486       .  S
C1064      C2020   1.511       .  S
C1065      O1066   1.238   1_565  A
C1065      C2044   1.491       .  S
O1067      C1082   1.291       .  A
O1067     Al1075   1.957       .  S
C1068      O1078   1.241       .  A
C1068      O1069   1.256       .  A
C1068      C1984   1.462       .  S
O1069     Al1071   1.902       .  S
O1070      C1072   1.249       .  A
O1070     Al1071   1.864       .  S
Al1071     O1079   1.867       .  S
Al1071     O1081   1.940       .  S
Al1071     O1080   1.755       .  S
C1072      O1085   1.267       .  A
C1072      C2005   1.473       .  S
O1073      C1083   1.262       .  A
O1073     Al1075   1.851       .  S
O1074      C1087   1.241   1_545  A
O1074     Al1084   1.866       .  S
Al1075     O1088   2.028       .  S
Al1075     O1085   1.973       .  S
Al1075     O1080   1.809       .  S
O1076      C1083   1.282       .  A
O1076     Al1084   1.968       .  S
O1077      C1086   1.271       .  A
O1077     Al1084   1.928       .  S
O1078     Al1084   1.848       .  S
O1079      C1086   1.256       .  A
O1080     Al1084   1.769       .  S
O1081      C1082   1.273       .  A
C1082      C1969   1.503       .  S
C1083      C2056   1.465       .  S
C1086      C2068   1.485       .  S
C1087      O1088   1.272   1_565  A
C1087      C1996   1.526       .  S
O1089      C1104   1.268       .  A
C1090      O1100   1.258       .  A
C1090      C2029   1.455       .  S
O1091     Al1093   1.836       .  S
O1092      C1094   1.256       .  A
O1092     Al1093   1.942       .  S
Al1093     O1101   1.906       .  S
Al1093     O1103   1.925       .  S
C1094      O1107   1.241       .  A
C1094      C1921   1.482       .  S
O1095      C1105   1.277       .  A
O1095     Al1097   1.930   1_556  S
O1096      C1109   1.281   1_554  A
O1096     Al1106   1.993   1_554  S
Al1097     O1110   1.804   1_554  S
Al1097     O1102   1.785       .  S
O1098      C1105   1.271       .  A
O1098     Al1106   1.910       .  S
O1099     Al1106   1.977   1_554  S
O1100     Al1106   1.917       .  S
O1101      C1108   1.264       .  A
O1102     Al1106   1.784   1_554  S
O1103      C1104   1.272       .  A
C1104      C1945   1.471       .  S
C1105      C1957   1.486       .  S
C1108      C1909   1.511       .  S
C1109      O1110   1.239       .  A
C1109      C1933   1.484       .  S
O1111      C1126   1.287       .  A
O1111     Al1119   1.964       .  S
C1112      O1122   1.242       .  A
C1112      O1113   1.258       .  A
C1112      C2008   1.465       .  S
O1113     Al1115   1.909       .  S
O1114      C1116   1.255       .  A
O1114     Al1115   1.864       .  S
Al1115     O1123   1.879       .  S
Al1115     O1125   1.923       .  S
Al1115     O1124   1.758       .  S
C1116      O1129   1.266       .  A
C1116      C1897   1.470       .  S
O1117      C1127   1.259       .  A
O1117     Al1119   1.851       .  S
O1118      C1131   1.242       .  A
O1118     Al1128   1.869       .  S
Al1119     O1132   2.009       .  S
Al1119     O1129   1.954       .  S
Al1119     O1124   1.807       .  S
O1120      C1127   1.276       .  A
O1120     Al1128   1.952       .  S
O1121      C1130   1.269       .  A
O1121     Al1128   1.924       .  S
O1122     Al1128   1.852       .  S
O1123      C1130   1.260       .  A
O1124     Al1128   1.775       .  S
O1125      C1126   1.268       .  A
C1126      C1873   1.499       .  S
C1127      C1948   1.460       .  S
C1130      C1960   1.487       .  S
C1131      O1132   1.270       .  A
C1131      C1885   1.513       .  S
O1133      C1148   1.289       .  A
O1133     Al1141   1.960       .  S
C1134      O1144   1.242       .  A
C1134      O1135   1.257       .  A
C1134      C1900   1.464       .  S
O1135     Al1137   1.903       .  S
O1136      C1138   1.254       .  A
O1136     Al1137   1.864       .  S
Al1137     O1145   1.871       .  S
Al1137     O1147   1.922       .  S
Al1137     O1146   1.760       .  S
C1138      O1151   1.265       .  A
C1138      C1981   1.467       .  S
O1139      C1149   1.262       .  A
O1139     Al1141   1.863       .  S
O1140      C1153   1.240       .  A
O1140     Al1150   1.872       .  S
Al1141     O1154   2.010       .  S
Al1141     O1151   1.952       .  S
Al1141     O1146   1.807       .  S
O1142      C1149   1.282       .  A
O1142     Al1150   1.974       .  S
O1143      C1152   1.272       .  A
O1143     Al1150   1.933       .  S
O1144     Al1150   1.847       .  S
O1145      C1152   1.257       .  A
O1146     Al1150   1.769       .  S
O1147      C1148   1.268       .  A
C1148      C1828   1.498       .  S
C1149      C1864   1.485       .  S
C1152      C1849   1.486       .  S
C1153      O1154   1.270       .  A
C1153      C1840   1.510   1_655  S
O1155      C1170   1.272       .  A
C1156      O1166   1.256       .  A
C1156      C1924   1.455       .  S
O1157     Al1159   1.850       .  S
O1158      C1160   1.257       .  A
O1158     Al1159   1.946       .  S
Al1159     O1167   1.889       .  S
Al1159     O1169   1.935       .  S
Al1159     O1168   1.773       .  S
C1160      O1173   1.243       .  A
C1160      C2080   1.482       .  S
O1161      C1171   1.279       .  A
O1161     Al1163   1.947       .  S
O1162      C1175   1.285       .  A
O1162     Al1172   1.998       .  S
Al1163     O1176   1.810       .  S
O1164      C1171   1.266       .  A
O1164     Al1172   1.894       .  S
O1165      C1174   1.280       .  A
O1166     Al1172   1.912       .  S
O1167      C1174   1.262       .  A
O1169      C1170   1.274       .  A
C1170      C1861   1.485       .  S
C1171      C1852   1.490       .  S
C1174      C1801   1.513       .  S
C1175      O1176   1.240       .  A
C1175      C1816   1.490   1_655  S
O1177      C1192   1.272       .  A
O1177     Al1185   1.914       .  S
C1178      O1188   1.259       .  A
C1178      O1179   1.251       .  A
C1178      C1789   1.461       .  S
O1179     Al1181   1.850       .  S
O1180      C1182   1.255       .  A
O1180     Al1181   1.920       .  S
Al1181     O1189   1.894       .  S
Al1181     O1191   1.916       .  S
Al1181     O1190   1.775       .  S
C1182      O1195   1.241       .  A
C1182      C1744   1.474       .  S
O1183      C1193   1.279       .  A
O1183     Al1185   1.948       .  S
O1184      C1197   1.287       .  A
O1184     Al1194   2.004       .  S
Al1185     O1198   1.806       .  S
Al1185     O1195   1.868       .  S
Al1185     O1190   1.788       .  S
O1186      C1193   1.267       .  A
O1186     Al1194   1.890       .  S
O1187      C1196   1.281       .  A
O1187     Al1194   1.985       .  S
O1188     Al1194   1.927       .  S
O1189      C1196   1.262       .  A
O1190     Al1194   1.785       .  S
O1191      C1192   1.270       .  A
C1192      C1765   1.476       .  S
C1193      C1777   1.486       .  S
C1196      C1993   1.519       .  S
C1197      O1198   1.238       .  A
C1197      C1756   1.492       .  S
O1199      C1214   1.289       .  A
O1199     Al1207   1.958       .  S
C1200      O1210   1.241       .  A
C1200      O1201   1.259       .  A
C1200      C1705   1.458       .  S
O1201     Al1203   1.908       .  S
O1202      C1204   1.256       .  A
O1202     Al1203   1.877       .  S
Al1203     O1211   1.878       .  S
Al1203     O1213   1.925       .  S
Al1203     O1212   1.762       .  S
C1204      O1217   1.265       .  A
C1204      C1729   1.468       .  S
O1205      C1215   1.261       .  A
O1205     Al1207   1.861       .  S
O1206      C1219   1.240       .  A
O1206     Al1216   1.868       .  S
Al1207     O1220   2.019       .  S
Al1207     O1217   1.945       .  S
Al1207     O1212   1.806       .  S
O1208      C1215   1.279       .  A
O1208     Al1216   1.961       .  S
O1209      C1218   1.268       .  A
O1209     Al1216   1.922       .  S
O1210     Al1216   1.839       .  S
O1211      C1218   1.258       .  A
O1212     Al1216   1.771       .  S
O1213      C1214   1.269       .  A
C1214      C1936   1.497       .  S
C1215      C1768   1.471       .  S
C1219      O1220   1.272       .  A
C1219      C1717   1.516       .  S
O1221      C1236   1.286       .  A
O1221     Al1229   1.956       .  S
C1222      O1232   1.245       .  A
C1222      O1223   1.260       .  A
C1222      C1732   1.451       .  S
O1223     Al1225   1.910       .  S
O1224      C1226   1.257       .  A
O1224     Al1225   1.862       .  S
Al1225     O1233   1.854       .  S
Al1225     O1235   1.924       .  S
Al1225     O1234   1.754       .  S
C1226      O1239   1.273       .  A
C1226      C1693   1.472       .  S
O1227      C1237   1.256       .  A
O1227     Al1229   1.843       .  S
O1228      C1241   1.242       .  A
O1228     Al1238   1.863       .  S
Al1229     O1242   2.044       .  S
Al1229     O1239   1.970       .  S
Al1229     O1234   1.791       .  S
O1230      C1237   1.274       .  A
O1230     Al1238   1.962       .  S
O1231      C1240   1.269       .  A
O1231     Al1238   1.934       .  S
O1232     Al1238   1.854       .  S
O1233      C1240   1.256       .  A
O1234     Al1238   1.770       .  S
O1235      C1236   1.266       .  A
C1236      C1813   1.501       .  S
C1237      C1684   1.467       .  S
C1241      O1242   1.281       .  A
C1241      C1657   1.521       .  S
O1243      C1258   1.268       .  A
O1243     Al1251   1.931       .  S
C1244      O1254   1.272       .  A
C1244      O1245   1.255       .  A
C1244      C1741   1.464       .  S
O1245     Al1247   1.853       .  S
O1246      C1248   1.262       .  A
O1246     Al1247   1.924       .  S
Al1247     O1255   1.928       .  S
Al1247     O1257   1.863       .  S
Al1247     O1256   1.751       .  S
C1248      O1261   1.247       .  A
C1248      C1633   1.462       .  S
O1249      C1259   1.273       .  A
O1249     Al1251   1.949       .  S
O1250      C1263   1.277       .  A
O1250     Al1260   2.022       .  S
Al1251     O1264   1.867       .  S
Al1251     O1261   1.863       .  S
Al1251     O1256   1.765       .  S
O1252      C1259   1.256       .  A
O1252     Al1260   1.848       .  S
O1253      C1262   1.282       .  A
O1253     Al1260   1.948       .  S
O1254     Al1260   1.962       .  S
O1255      C1262   1.267       .  A
O1256     Al1260   1.798       .  S
O1257      C1258   1.257       .  A
C1258      C1681   1.469       .  S
C1259      C1669   1.461       .  S
C1262      C1888   1.498       .  S
C1263      O1264   1.244       .  A
C1263      C1648   1.508       .  S
O1265      C1280   1.267       .  A
O1265     Al1273   1.893       .  S
C1266      O1276   1.260       .  A
C1266      O1267   1.248       .  A
C1266      C1636   1.461       .  S
O1267     Al1269   1.837       .  S
O1268      C1270   1.254       .  A
O1268     Al1269   1.932       .  S
Al1269     O1277   1.903       .  S
Al1269     O1279   1.923       .  S
Al1269     O1278   1.775       .  S
C1270      O1283   1.240       .  A
C1270      C1792   1.481       .  S
O1271      C1281   1.278       .  A
O1271     Al1273   1.932       .  S
O1272      C1285   1.276       .  A
O1272     Al1282   1.988       .  S
Al1273     O1286   1.782       .  S
Al1273     O1283   1.865       .  S
Al1273     O1278   1.791       .  S
O1274      C1281   1.268       .  A
O1274     Al1282   1.898       .  S
O1275      C1284   1.276       .  A
O1275     Al1282   1.947       .  S
O1276     Al1282   1.931       .  S
O1277      C1284   1.264       .  A
O1278     Al1282   1.792       .  S
O1279      C1280   1.271       .  A
C1280      C1609   1.468       .  S
C1281      C1624   1.481       .  S
C1284      C1837   1.508       .  S
C1285      O1286   1.234       .  A
C1285      C1597   1.478       .  S
O1287      C1302   1.289       .  A
O1287     Al1295   1.966       .  S
C1288      O1298   1.244       .  A
C1288      O1289   1.257       .  A
C1288      C1696   1.464       .  S
O1289     Al1291   1.901       .  S
O1290      C1292   1.257       .  A
O1290     Al1291   1.861       .  S
Al1291     O1299   1.860       .  S
Al1291     O1301   1.911       .  S
Al1291     O1300   1.760       .  S
C1292      O1305   1.266       .  A
C1292      C1708   1.462       .  S
O1293      C1303   1.258       .  A
O1293     Al1295   1.852       .  S
O1294      C1307   1.243       .  A
O1294     Al1304   1.865       .  S
Al1295     O1308   2.015       .  S
Al1295     O1305   1.945       .  S
Al1295     O1300   1.801       .  S
O1296      C1303   1.276       .  A
O1296     Al1304   1.961       .  S
O1297      C1306   1.272       .  A
O1297     Al1304   1.938       .  S
O1298     Al1304   1.859       .  S
O1299      C1306   1.257       .  A
O1300     Al1304   1.774       .  S
O1301      C1302   1.264       .  A
C1302      C2041   1.502       .  S
C1303      C1612   1.471       .  S
C1307      O1308   1.274       .  A
C1307      C1588   1.520       .  S
O1309      C1324   1.268       .  A
O1309     Al1317   1.899       .  S
C1310      O1320   1.258       .  A
C1310      O1311   1.251       .  A
C1310      C1573   1.459       .  S
O1311     Al1313   1.844       .  S
O1312      C1314   1.257       .  A
O1312     Al1313   1.935       .  S
Al1313     O1321   1.901       .  S
Al1313     O1323   1.921       .  S
Al1313     O1322   1.777       .  S
C1314      O1327   1.243       .  A
C1314      C1537   1.480   1_545  S
O1315      C1325   1.278       .  A
O1315     Al1317   1.947       .  S
O1316      C1329   1.284       .  A
O1316     Al1326   1.996       .  S
Al1317     O1330   1.804       .  S
Al1317     O1327   1.875       .  S
Al1317     O1322   1.789       .  S
O1318      C1325   1.266       .  A
O1318     Al1326   1.887       .  S
O1319      C1328   1.280       .  A
O1319     Al1326   1.976       .  S
O1320     Al1326   1.924       .  S
O1321      C1328   1.265       .  A
O1322     Al1326   1.786       .  S
O1323      C1324   1.271       .  A
C1324      C1549   1.475       .  S
C1325      C1561   1.485       .  S
C1328      C1660   1.514       .  S
C1329      O1330   1.239       .  A
C1329      C1972   1.491       .  S
O1331      C1346   1.289       .  A
O1331     Al1339   1.955   1_565  S
C1332      O1342   1.244       .  A
C1332      O1333   1.256       .  A
C1332      C1513   1.462       .  S
O1333     Al1335   1.896       .  S
O1334      C1336   1.253       .  A
O1334     Al1335   1.877   1_565  S
Al1335     O1343   1.872       .  S
Al1335     O1345   1.914   1_545  S
Al1335     O1344   1.763       .  S
C1336      O1349   1.266       .  A
C1336      C1525   1.469       .  S
O1337      C1347   1.262       .  A
O1337     Al1339   1.856       .  S
O1338      C1351   1.241       .  A
O1338     Al1348   1.866       .  S
Al1339     O1352   2.016       .  S
Al1339     O1349   1.957   1_545  S
Al1339     O1344   1.806       .  S
O1340      C1347   1.279       .  A
O1340     Al1348   1.964       .  S
O1341      C1350   1.270       .  A
O1341     Al1348   1.926       .  S
O1342     Al1348   1.856       .  S
O1343      C1350   1.257       .  A
O1344     Al1348   1.774       .  S
O1345      C1346   1.267       .  A
C1346      C1600   1.493       .  S
C1350      C1564   1.488       .  S
C1351      O1352   1.272       .  A
C1351      C1912   1.522       .  S
O1353      C1368   1.269       .  A
O1353     Al1361   1.927       .  S
C1354      O1364   1.273       .  A
C1354      O1355   1.255   1_455  A
C1354      C1540   1.471       .  S
O1355     Al1357   1.865       .  S
O1356      C1358   1.261       .  A
O1356     Al1357   1.917       .  S
Al1357     O1365   1.940   1_655  S
Al1357     O1367   1.869       .  S
Al1357     O1366   1.753       .  S
C1358      O1371   1.246       .  A
C1358      C1477   1.465       .  S
O1359      C1369   1.274       .  A
O1359     Al1361   1.955       .  S
O1360      C1373   1.276       .  A
O1360     Al1370   2.023       .  S
Al1361     O1374   1.864       .  S
Al1361     O1371   1.861       .  S
Al1361     O1366   1.769       .  S
O1362      C1369   1.259       .  A
O1362     Al1370   1.852       .  S
O1363      C1372   1.283   1_655  A
O1363     Al1370   1.959       .  S
O1364     Al1370   1.974   1_455  S
O1365      C1372   1.270       .  A
O1366     Al1370   1.798       .  S
O1367      C1368   1.259       .  A
C1368      C1489   1.479       .  S
C1369      C1501   1.464       .  S
C1372      C1585   1.503       .  S
C1373      O1374   1.243       .  A
C1373      C1876   1.518       .  S
O1375      C1390   1.289       .  A
O1375     Al1383   1.966       .  S
C1376      O1386   1.243       .  A
C1376      O1377   1.259       .  A
C1376      C1528   1.455       .  S
O1377     Al1379   1.911       .  S
O1378      C1380   1.254       .  A
O1378     Al1379   1.862       .  S
Al1379     O1387   1.858       .  S
Al1379     O1389   1.924       .  S
Al1379     O1388   1.751       .  S
C1380      O1393   1.271       .  A
C1380      C1465   1.470       .  S
O1381      C1391   1.258       .  A
O1381     Al1383   1.849       .  S
O1382      C1395   1.240       .  A
O1382     Al1392   1.862       .  S
Al1383     O1396   2.039       .  S
Al1383     O1393   1.967       .  S
Al1383     O1388   1.804       .  S
O1384      C1391   1.276       .  A
O1384     Al1392   1.960       .  S
O1385      C1394   1.268       .  A
O1385     Al1392   1.926       .  S
O1386     Al1392   1.854       .  S
O1387      C1394   1.257       .  A
O1388     Al1392   1.771       .  S
O1389      C1390   1.267       .  A
C1390      C1753   1.505       .  S
C1394      C1504   1.470       .  S
C1395      O1396   1.278       .  A
C1395      C1804   1.520       .  S
O1397      C1412   1.266       .  A
O1397     Al1405   1.890       .  S
C1398      O1408   1.257       .  A
C1398      O1399   1.252       .  A
C1398      C1480   1.459       .  S
O1399     Al1401   1.856   1_565  S
O1400      C1402   1.255       .  A
O1400     Al1401   1.931       .  S
Al1401     O1409   1.894   1_545  S
Al1401     O1411   1.930       .  S
Al1401     O1410   1.777       .  S
C1402      O1415   1.244       .  A
C1402      C1576   1.483       .  S
O1403      C1413   1.276       .  A
O1403     Al1405   1.928       .  S
O1404      C1417   1.282       .  A
O1404     Al1414   1.992       .  S
Al1405     O1418   1.801       .  S
Al1405     O1415   1.875       .  S
Al1405     O1410   1.789       .  S
O1406      C1413   1.268       .  A
O1406     Al1414   1.898       .  S
O1407      C1416   1.280       .  A
O1407     Al1414   1.972   1_565  S
O1408     Al1414   1.917   1_565  S
O1409      C1416   1.262       .  A
O1410     Al1414   1.792       .  S
O1411      C1412   1.273       .  A
C1412      C1441   1.474       .  S
C1413      C1453   1.479       .  S
C1416      C1720   1.513       .  S
C1417      O1418   1.238       .  A
C1417      C1825   1.488       .  S
O1419      C1434   1.285   1_655  A
O1419     Al1427   1.961       .  S
C1420      O1430   1.245       .  A
C1420      O1421   1.257       .  A
C1420      C1468   1.460   1_545  S
O1421     Al1423   1.900       .  S
O1422      C1424   1.256   1_655  A
O1422     Al1423   1.866       .  S
Al1423     O1431   1.864       .  S
Al1423     O1433   1.911   1_655  S
Al1423     O1432   1.758       .  S
C1424      O1437   1.269       .  A
C1424      C1516   1.464       .  S
O1425      C1435   1.259       .  A
O1425     Al1427   1.855       .  S
O1426      C1439   1.244       .  A
O1426     Al1436   1.869       .  S
Al1427     O1440   2.010       .  S
Al1427     O1437   1.956   1_655  S
Al1427     O1432   1.803       .  S
O1428      C1435   1.275       .  A
O1428     Al1436   1.957       .  S
O1429      C1438   1.272       .  A
O1429     Al1436   1.938       .  S
O1430     Al1436   1.863       .  S
O1431      C1438   1.258       .  A
O1432     Al1436   1.772       .  S
O1433      C1434   1.264       .  A
C1434      C1645   1.495       .  S
C1438      C1456   1.484       .  S
C1439      O1440   1.274       .  A
C1439      C2017   1.514       .  S
C1441      C1442   1.406       .  A
C1441      C1446   1.407       .  A
C1442      C1443   1.399       .  A
C1442      H1447   1.084       .  S
C1443      C1444   1.404       .  A
C1443      O1448   1.371   1_556  S
C1444      C1445   1.406       .  A
C1445      C1446   1.398       .  A
C1445      H1449   1.084       .  S
C1446      O1450   1.372       .  S
O1448      H1452   0.991       .  S
O1450      H1451   0.992       .  S
C1453      C1454   1.409       .  A
C1453      C1458   1.405       .  A
C1454      C1455   1.396       .  A
C1454      H1459   1.083       .  S
C1455      C1456   1.407       .  A
C1455      O1460   1.372       .  S
C1456      C1457   1.412       .  A
C1457      C1458   1.400       .  A
C1457      H1461   1.083       .  S
C1458      O1462   1.371       .  S
O1460      H1464   0.992       .  S
O1462      H1463   0.991       .  S
C1465      C1466   1.405       .  A
C1465      C1470   1.410       .  A
C1466      C1467   1.402       .  A
C1466      H1471   1.079       .  S
C1467      C1468   1.406       .  A
C1467      O1472   1.371       .  S
C1468      C1469   1.395       .  A
C1469      C1470   1.390       .  A
C1469      H1473   1.083   1_565  S
C1470      O1474   1.373       .  S
O1472      H1476   0.991       .  S
O1474      H1475   0.993       .  S
C1477      C1478   1.401       .  A
C1477      C1482   1.404       .  A
C1478      C1479   1.398       .  A
C1478      H1483   1.084       .  S
C1479      C1480   1.405       .  A
C1479      O1484   1.366       .  S
C1480      C1481   1.400       .  A
C1481      C1482   1.395       .  A
C1481      H1485   1.083       .  S
C1482      O1486   1.369       .  S
O1484      H1488   0.991       .  S
O1486      H1487   0.991       .  S
C1489      C1490   1.410       .  A
C1489      C1494   1.409       .  A
C1490      C1491   1.398       .  A
C1490      H1495   1.083       .  S
C1491      C1492   1.402       .  A
C1491      O1496   1.372       .  S
C1492      C1493   1.404       .  A
C1493      C1494   1.397       .  A
C1493      H1497   1.084       .  S
C1494      O1498   1.371       .  S
O1496      H1500   0.992   1_556  S
O1498      H1499   0.992       .  S
C1501      C1502   1.406       .  A
C1501      C1506   1.403       .  A
C1502      C1503   1.395       .  A
C1502      H1507   1.084       .  S
C1503      C1504   1.404       .  A
C1503      O1508   1.371       .  S
C1504      C1505   1.408       .  A
C1505      C1506   1.395       .  A
C1505      H1509   1.083       .  S
C1506      O1510   1.372       .  S
O1508      H1512   0.992       .  S
O1510      H1511   0.992       .  S
C1513      C1514   1.399       .  A
C1513      C1518   1.406       .  A
C1514      C1515   1.393       .  A
C1514      H1519   1.082       .  S
C1515      C1516   1.407       .  A
C1515      O1520   1.372       .  S
C1516      C1517   1.401       .  A
C1517      C1518   1.398       .  A
C1517      H1521   1.077       .  S
C1518      O1522   1.372       .  S
O1520      H1524   0.991       .  S
O1522      H1523   0.992       .  S
C1525      C1526   1.404       .  A
C1525      C1530   1.406       .  A
C1526      C1527   1.398       .  A
C1526      H1531   1.072       .  S
C1527      C1528   1.401   1_455  A
C1527      O1532   1.372       .  S
C1528      C1529   1.396   1_655  A
C1529      C1530   1.394       .  A
C1529      H1533   1.081   1_455  S
C1530      O1534   1.373       .  S
O1532      H1536   0.992       .  S
O1534      H1535   0.991       .  S
C1537      C1538   1.402       .  A
C1537      C1542   1.416       .  A
C1538      C1539   1.398       .  A
C1538      H1543   1.078       .  S
C1539      C1540   1.407       .  A
C1539      O1544   1.370       .  S
C1540      C1541   1.395       .  A
C1541      C1542   1.398       .  A
C1541      H1545   1.075       .  S
C1542      O1546   1.371       .  S
O1544      H1548   0.992       .  S
O1546      H1547   0.992       .  S
C1549      C1550   1.407       .  A
C1549      C1554   1.406       .  A
C1550      C1551   1.398       .  A
C1550      H1555   1.084       .  S
C1551      C1552   1.403       .  A
C1551      O1556   1.372   1_556  S
C1552      C1553   1.405       .  A
C1553      C1554   1.399       .  A
C1553      H1557   1.083       .  S
C1554      O1558   1.371       .  S
O1556      H1560   0.992       .  S
O1558      H1559   0.992       .  S
C1561      C1562   1.410       .  A
C1561      C1566   1.405       .  A
C1562      C1563   1.394       .  A
C1562      H1567   1.083       .  S
C1563      C1564   1.406       .  A
C1563      O1568   1.372       .  S
C1564      C1565   1.415       .  A
C1565      C1566   1.406       .  A
C1565      H1569   1.083       .  S
C1566      O1570   1.371       .  S
O1568      H1572   0.992       .  S
O1570      H1571   0.992   1_545  S
C1573      C1574   1.402       .  A
C1573      C1578   1.400       .  A
C1574      C1575   1.400       .  A
C1574      H1579   1.080       .  S
C1575      C1576   1.408   1_455  A
C1575      O1580   1.368   1_455  S
C1576      C1577   1.411   1_655  A
C1577      C1578   1.399       .  A
C1577      H1581   1.083       .  S
C1578      O1582   1.369       .  S
O1580      H1584   0.992       .  S
O1582      H1583   0.992       .  S
C1585      C1586   1.406       .  A
C1585      C1590   1.409       .  A
C1586      C1587   1.413       .  A
C1586      H1591   1.078       .  S
C1587      C1588   1.415       .  A
C1587      O1592   1.369       .  S
C1588      C1589   1.417       .  A
C1589      C1590   1.417       .  A
C1589      H1593   1.083       .  S
C1590      O1594   1.371       .  S
O1592      H1596   0.991       .  S
O1594      H1595   0.992       .  S
C1597      C1598   1.413       .  A
C1597      C1602   1.414       .  A
C1598      C1599   1.407       .  A
C1598      H1603   1.084       .  S
C1599      C1600   1.405       .  A
C1599      O1604   1.372       .  S
C1600      C1601   1.411       .  A
C1601      C1602   1.417       .  A
C1601      H1605   1.083       .  S
C1602      O1606   1.371       .  S
O1604      H1608   0.992       .  S
O1606      H1607   0.992       .  S
C1609      C1610   1.397       .  A
C1609      C1614   1.410       .  A
C1610      C1611   1.397       .  A
C1610      H1615   1.084       .  S
C1611      C1612   1.414       .  A
C1611      O1616   1.373       .  S
C1612      C1613   1.400       .  A
C1613      C1614   1.400       .  A
C1613      H1617   1.084       .  S
C1614      O1618   1.372       .  S
O1616      H1620   0.992       .  S
O1618      H1619   0.992       .  S
C1621      C1622   1.412       .  A
C1621      C1626   1.407       .  A
C1622      C1623   1.400       .  A
C1622      H1627   1.083       .  S
C1623      C1624   1.404       .  A
C1623      O1628   1.370       .  S
C1624      C1625   1.410       .  A
C1625      C1626   1.397       .  A
C1625      H1629   1.084       .  S
C1626      O1630   1.372       .  S
O1628      H1632   0.991       .  S
O1630      H1631   0.992       .  S
C1633      C1634   1.401       .  A
C1633      C1638   1.402       .  A
C1634      C1635   1.399       .  A
C1634      H1639   1.083       .  S
C1635      C1636   1.405       .  A
C1635      O1640   1.369       .  S
C1636      C1637   1.403       .  A
C1637      C1638   1.398       .  A
C1637      H1641   1.075       .  S
C1638      O1642   1.371       .  S
O1640      H1644   0.991       .  S
O1642      H1643   0.991       .  S
C1645      C1646   1.406       .  A
C1645      C1650   1.411       .  A
C1646      C1647   1.410       .  A
C1646      H1651   1.084       .  S
C1647      C1648   1.416       .  A
C1647      O1652   1.371       .  S
C1648      C1649   1.409       .  A
C1649      C1650   1.413       .  A
C1649      H1653   1.080       .  S
C1650      O1654   1.371       .  S
O1652      H1656   0.992       .  S
O1654      H1655   0.991       .  S
C1657      C1658   1.416       .  A
C1657      C1662   1.415       .  A
C1658      C1659   1.415       .  A
C1658      H1663   1.084       .  S
C1659      C1660   1.411       .  A
C1659      O1664   1.371       .  S
C1660      C1661   1.411       .  A
C1661      C1662   1.419       .  A
C1661      H1665   1.080       .  S
C1662      O1666   1.370       .  S
O1664      H1668   0.990       .  S
O1666      H1667   0.992       .  S
C1669      C1670   1.393       .  A
C1669      C1674   1.411       .  A
C1670      C1671   1.394       .  A
C1670      H1675   1.084       .  S
C1671      C1672   1.415       .  A
C1671      O1676   1.370       .  S
C1672      C1673   1.399       .  A
C1673      C1674   1.396       .  A
C1673      H1677   1.084       .  S
C1674      O1678   1.372       .  S
O1676      H1680   0.992       .  S
O1678      H1679   0.992       .  S
C1681      C1682   1.409       .  A
C1681      C1686   1.403       .  A
C1682      C1683   1.397       .  A
C1682      H1687   1.084       .  S
C1683      C1684   1.402       .  A
C1683      O1688   1.371       .  S
C1684      C1685   1.407       .  A
C1685      C1686   1.394       .  A
C1685      H1689   1.084       .  S
C1686      O1690   1.372       .  S
O1688      H1692   0.991       .  S
O1690      H1691   0.992       .  S
C1693      C1694   1.405       .  A
C1693      C1698   1.407       .  A
C1694      C1695   1.391       .  A
C1694      H1699   1.083       .  S
C1695      C1696   1.404       .  A
C1695      O1700   1.371       .  S
C1696      C1697   1.403       .  A
C1697      C1698   1.400       .  A
C1697      H1701   1.084       .  S
C1698      O1702   1.368       .  S
O1700      H1704   0.992       .  S
O1702      H1703   0.991       .  S
C1705      C1706   1.403       .  A
C1705      C1710   1.403       .  A
C1706      C1707   1.397       .  A
C1706      H1711   1.084       .  S
C1707      C1708   1.405       .  A
C1707      O1712   1.368       .  S
C1708      C1709   1.402       .  A
C1709      C1710   1.391       .  A
C1709      H1713   1.084       .  S
C1710      O1714   1.368       .  S
O1712      H1716   0.992       .  S
O1714      H1715   0.992       .  S
C1717      C1718   1.409       .  A
C1717      C1722   1.416       .  A
C1718      C1719   1.414       .  A
C1718      H1723   1.079       .  S
C1719      C1720   1.412       .  A
C1719      O1724   1.370       .  S
C1720      C1721   1.412       .  A
C1721      C1722   1.418       .  A
C1721      H1725   1.083       .  S
C1722      O1726   1.371       .  S
O1724      H1728   0.992       .  S
O1726      H1727   0.992       .  S
C1729      C1730   1.403       .  A
C1729      C1734   1.406       .  A
C1730      C1731   1.398       .  A
C1730      H1735   1.075       .  S
C1731      C1732   1.401       .  A
C1731      O1736   1.371       .  S
C1732      C1733   1.397       .  A
C1733      C1734   1.390       .  A
C1733      H1737   1.083       .  S
C1734      O1738   1.369       .  S
O1736      H1740   0.991       .  S
O1738      H1739   0.991       .  S
C1741      C1742   1.404       .  A
C1741      C1746   1.403       .  A
C1742      C1743   1.391       .  A
C1742      H1747   1.084       .  S
C1743      C1744   1.403       .  A
C1743      O1748   1.364       .  S
C1744      C1745   1.408       .  A
C1745      C1746   1.394       .  A
C1745      H1749   1.083       .  S
C1746      O1750   1.367       .  S
O1748      H1752   0.992       .  S
O1750      H1751   0.992       .  S
C1753      C1754   1.404       .  A
C1753      C1758   1.414       .  A
C1754      C1755   1.414       .  A
C1754      H1759   1.083       .  S
C1755      C1756   1.418       .  A
C1755      O1760   1.369       .  S
C1756      C1757   1.413       .  A
C1757      C1758   1.419       .  A
C1757      H1761   1.083       .  S
C1758      O1762   1.371       .  S
O1760      H1764   0.991       .  S
O1762      H1763   0.992       .  S
C1765      C1766   1.400       .  A
C1765      C1770   1.413       .  A
C1766      C1767   1.402       .  A
C1766      H1771   1.084       .  S
C1767      C1768   1.412       .  A
C1767      O1772   1.371       .  S
C1768      C1769   1.397       .  A
C1769      C1770   1.397       .  A
C1769      H1773   1.084       .  S
C1770      O1774   1.370       .  S
O1772      H1776   0.992       .  S
O1774      H1775   0.992       .  S
C1777      C1778   1.411       .  A
C1777      C1782   1.406       .  A
C1778      C1779   1.393       .  A
C1778      H1783   1.082       .  S
C1779      C1780   1.406       .  A
C1779      O1784   1.372       .  S
C1780      C1781   1.414       .  A
C1781      C1782   1.406       .  A
C1781      H1785   1.083       .  S
C1782      O1786   1.371       .  S
O1784      H1788   0.992       .  S
O1786      H1787   0.992       .  S
C1789      C1790   1.403       .  A
C1789      C1794   1.399       .  A
C1790      C1791   1.403       .  A
C1790      H1795   1.082       .  S
C1791      C1792   1.409       .  A
C1791      O1796   1.370       .  S
C1792      C1793   1.408       .  A
C1793      C1794   1.396       .  A
C1793      H1797   1.083       .  S
C1794      O1798   1.367       .  S
O1796      H1800   0.990       .  S
O1798      H1799   0.992       .  S
C1801      C1802   1.408       .  A
C1801      C1806   1.417       .  A
C1802      C1803   1.413       .  A
C1802      H1807   1.084       .  S
C1803      C1804   1.418       .  A
C1803      O1808   1.373       .  S
C1804      C1805   1.412       .  A
C1805      C1806   1.419       .  A
C1805      H1809   1.082       .  S
O1808      H1812   0.992       .  S
O1810      H1811   0.992       .  S
C1813      C1814   1.397       .  A
C1813      C1818   1.417       .  A
C1814      C1815   1.411       .  A
C1814      H1819   1.084       .  S
C1815      C1816   1.420       .  A
C1815      O1820   1.372   1_455  S
C1816      C1817   1.408       .  A
C1817      C1818   1.418       .  A
C1817      H1821   1.083   1_556  S
C1818      O1822   1.368   1_556  S
O1820      H1824   0.992       .  S
O1822      H1823   0.991       .  S
C1825      C1826   1.414       .  A
C1825      C1830   1.414       .  A
C1826      C1827   1.407       .  A
C1826      H1831   1.082       .  S
C1827      C1828   1.403       .  A
C1827      O1832   1.371       .  S
C1828      C1829   1.413       .  A
C1829      C1830   1.420       .  A
C1829      H1833   1.083       .  S
C1830      O1834   1.371       .  S
O1832      H1836   0.992       .  S
O1834      H1835   0.992       .  S
C1837      C1838   1.411       .  A
C1837      C1842   1.413       .  A
C1838      C1839   1.418       .  A
C1838      H1843   1.083       .  S
C1839      C1840   1.415       .  A
C1839      O1844   1.371       .  S
C1840      C1841   1.406       .  A
C1841      C1842   1.410       .  A
C1841      H1845   1.080   1_455  S
C1842      O1846   1.372       .  S
O1844      H1848   0.992       .  S
O1846      H1847   0.992       .  S
C1849      C1850   1.396       .  A
C1849      C1854   1.419       .  A
C1850      C1851   1.395       .  A
C1850      H1855   1.084       .  S
C1851      C1852   1.421       .  A
C1851      O1856   1.373       .  S
C1852      C1853   1.402       .  A
C1853      C1854   1.405       .  A
C1853      H1857   1.084       .  S
C1854      O1858   1.371       .  S
O1856      H1860   0.992       .  S
O1858      H1859   0.992       .  S
C1861      C1862   1.409       .  A
C1861      C1866   1.405       .  A
C1862      C1863   1.406       .  A
C1862      H1867   1.084       .  S
C1863      C1864   1.407       .  A
C1863      O1868   1.371       .  S
C1864      C1865   1.410       .  A
C1865      C1866   1.403       .  A
C1865      H1869   1.084       .  S
C1866      O1870   1.371       .  S
O1868      H1872   0.992       .  S
O1870      H1871   0.991       .  S
C1873      C1874   1.407       .  A
C1873      C1878   1.406       .  A
C1874      C1875   1.413       .  A
C1874      H1879   1.074       .  S
C1875      C1876   1.411       .  A
C1875      O1880   1.371       .  S
C1876      C1877   1.419       .  A
C1877      C1878   1.414       .  A
C1877      H1881   1.083       .  S
C1878      O1882   1.371       .  S
O1880      H1884   0.992       .  S
O1882      H1883   0.991       .  S
C1885      C1886   1.409       .  A
C1885      C1890   1.415       .  A
C1886      C1887   1.411       .  A
C1886      H1891   1.076       .  S
C1887      C1888   1.408       .  A
C1887      O1892   1.372       .  S
C1888      C1889   1.410       .  A
C1889      C1890   1.415       .  A
C1889      H1893   1.083       .  S
C1890      O1894   1.371       .  S
O1892      H1896   0.992       .  S
O1894      H1895   0.992       .  S
C1897      C1898   1.403       .  A
C1897      C1902   1.401       .  A
C1898      C1899   1.394       .  A
C1898      H1903   1.081       .  S
C1899      C1900   1.405       .  A
C1899      O1904   1.372       .  S
C1900      C1901   1.406       .  A
C1901      C1902   1.399       .  A
C1901      H1905   1.084       .  S
C1902      O1906   1.368       .  S
O1904      H1908   0.992       .  S
O1906      H1907   0.991       .  S
C1909      C1910   1.410       .  A
C1909      C1914   1.411       .  A
C1910      C1911   1.416       .  A
C1911      C1912   1.415       .  A
C1911      O1916   1.370       .  S
C1912      C1913   1.416       .  A
C1913      C1914   1.417       .  A
C1913      H1917   1.083       .  S
C1914      O1918   1.371       .  S
O1918      H1919   0.992       .  S
C1921      C1922   1.403       .  A
C1922      H1927   1.080       .  S
C1923      C1924   1.405       .  A
C1923      O1928   1.370       .  S
C1924      C1925   1.395       .  A
C1925      C1926   1.396       .  A
C1925      H1929   1.081       .  S
C1926      O1930   1.371       .  S
O1930      H1931   0.992       .  S
C1933      C1934   1.414   1_556  A
C1933      C1938   1.416       .  A
C1934      C1935   1.420   1_554  A
C1934      H1939   1.083       .  S
C1935      C1936   1.413       .  A
C1935      O1940   1.371   1_556  S
C1936      C1937   1.400       .  A
C1937      C1938   1.406       .  A
C1937      H1941   1.081       .  S
C1938      O1942   1.371       .  S
O1940      H1944   0.992       .  S
O1942      H1943   0.991       .  S
C1945      C1946   1.401       .  A
C1945      C1950   1.413       .  A
C1946      C1947   1.395       .  A
C1946      H1951   1.084       .  S
C1947      C1948   1.408       .  A
C1947      O1952   1.372       .  S
C1948      C1949   1.398       .  A
C1949      C1950   1.398       .  A
C1949      H1953   1.084       .  S
C1950      O1954   1.372       .  S
O1952      H1956   0.992       .  S
O1954      H1955   0.992       .  S
C1957      C1958   1.410       .  A
C1957      C1962   1.407       .  A
C1958      C1959   1.398       .  A
C1958      H1963   1.083       .  S
C1959      C1960   1.408       .  A
C1959      O1964   1.372       .  S
C1960      C1961   1.411       .  A
C1961      C1962   1.402       .  A
C1961      H1965   1.082       .  S
C1962      O1966   1.371       .  S
O1964      H1968   0.992       .  S
O1966      H1967   0.992       .  S
C1969      C1970   1.413       .  A
C1969      C1974   1.405       .  A
C1970      C1971   1.421       .  A
C1970      H1975   1.083       .  S
C1971      C1972   1.415       .  A
C1971      O1976   1.371       .  S
C1972      C1973   1.414       .  A
C1973      C1974   1.409       .  A
C1973      H1977   1.082       .  S
C1974      O1978   1.372       .  S
O1976      H1980   0.992       .  S
O1978      H1979   0.992       .  S
C1981      C1982   1.404       .  A
C1981      C1986   1.405       .  A
C1982      C1983   1.393       .  A
C1982      H1987   1.084       .  S
C1983      C1984   1.405       .  A
C1983      O1988   1.371       .  S
C1984      C1985   1.403       .  A
C1985      C1986   1.398       .  A
C1985      H1989   1.084       .  S
C1986      O1990   1.367       .  S
O1988      H1992   0.993       .  S
O1990      H1991   0.991       .  S
C1993      C1994   1.412       .  A
C1993      C1998   1.414       .  A
C1994      C1995   1.418       .  A
C1994      H1999   1.082       .  S
C1995      C1996   1.417       .  A
C1995      O2000   1.372       .  S
C1996      C1997   1.412       .  A
C1997      C1998   1.419       .  A
C1997      H2001   1.080       .  S
C1998      O2002   1.370       .  S
O2000      H2004   0.992       .  S
O2002      H2003   0.992       .  S
C2005      C2006   1.404       .  A
C2005      C2010   1.407       .  A
C2006      C2007   1.391       .  A
C2006      H2011   1.083       .  S
C2007      C2008   1.403       .  A
C2007      O2012   1.368       .  S
C2008      C2009   1.403       .  A
C2009      C2010   1.401       .  A
C2009      H2013   1.084       .  S
C2010      O2014   1.366       .  S
O2012      H2016   0.992       .  S
O2014      H2015   0.991       .  S
C2017      C2018   1.408       .  A
C2017      C2022   1.418       .  A
C2018      C2019   1.413       .  A
C2018      H2023   1.082       .  S
C2019      C2020   1.414       .  A
C2019      O2024   1.370       .  S
C2020      C2021   1.411       .  A
C2021      C2022   1.416       .  A
C2021      H2025   1.083       .  S
C2022      O2026   1.372       .  S
O2024      H2028   0.992       .  S
O2026      H2027   0.992       .  S
C2029      C2034   1.406       .  A
C2030      C2031   1.396       .  A
C2030      H2035   1.082       .  S
C2031      C2032   1.419       .  A
C2031      O2036   1.371       .  S
C2033      C2034   1.401       .  A
C2033      H2037   1.079       .  S
C2034      O2038   1.370       .  S
O2036      H2040   0.992       .  S
O2038      H2039   0.991       .  S
C2041      C2042   1.415       .  A
C2041      C2046   1.404       .  A
C2042      C2043   1.420   1_556  A
C2043      C2044   1.413   1_554  A
C2044      C2045   1.416       .  A
C2045      C2046   1.409       .  A
C2045      H2049   1.079       .  S
C2046      O2050   1.371       .  S
O2048      H2052   0.992       .  S
O2050      H2051   0.992       .  S
C2053      C2054   1.400       .  A
C2053      C2058   1.413       .  A
C2054      C2055   1.400       .  A
C2054      H2059   1.084       .  S
C2055      C2056   1.412       .  A
C2055      O2060   1.373       .  S
C2056      C2057   1.395       .  A
C2057      C2058   1.397       .  A
C2057      H2061   1.084       .  S
C2058      O2062   1.371       .  S
O2060      H2064   0.992       .  S
O2062      H2063   0.992       .  S
C2065      C2066   1.400       .  A
C2065      C2070   1.421       .  A
C2066      C2067   1.404       .  A
C2066      H2071   1.084       .  S
C2067      C2068   1.420       .  A
C2067      O2072   1.371       .  S
C2068      C2069   1.397       .  A
C2069      C2070   1.396       .  A
C2069      H2073   1.084       .  S
C2070      O2074   1.373       .  S
O2072      H2076   0.992       .  S
O2074      H2075   0.992       .  S
C2077      C2082   1.398       .  A
C2078      C2079   1.402       .  A
C2078      H2083   1.082       .  S
C2079      C2080   1.407       .  A
C2079      O2084   1.369       .  S
C2081      C2082   1.395       .  A
C2081      H2085   1.083       .  S
C2082      O2086   1.369       .  S
O2084      H2088   0.992       .  S
O2086      H2087   0.991       .  S
