geometry optimzed in LAMMPS
_audit_creation_date              2020-11-30 
_audit_creation_method            'lammps2cif' 
_symmetry_space_group_name_H-M    'P1' 
_symmetry_Int_Tables_number       1 
_symmetry_cell_setting            triclinic 
loop_ 
_symmetry_equiv_pos_as_xyz 
  x,y,z 
_cell_length_a                    34.63538302 
_cell_length_b                    34.7435485354233 
_cell_length_c                    46.39316327173673 
_cell_angle_alpha                 90.0252055992615 
_cell_angle_beta                  89.91244294183733 
_cell_angle_gamma                 120.20882499897976 
loop_ 
_atom_site_label 
_atom_site_type_symbol 
_atom_site_fract_x 
_atom_site_fract_y 
_atom_site_fract_z 
_atom_site_charge 
O1          O  0.04046466  0.25259759  0.98854474    -0.84100
O2          O  0.03594363  0.18802934  0.02460806    -0.81100
C3          C  0.03431311  0.15261386  0.03253037     0.99400
O4          O  0.05773154  0.13914020  0.01982439    -0.81200
O5          O  0.00537345  0.10359928  0.97160787    -0.83800
C6          C  0.48932224  0.10934668  0.94685135     1.03900
O7          O  0.50809613  0.14140056  0.92927636    -0.76600
O8          O  0.99661201  0.20092607  0.95806531    -0.76800
C9          C  0.00319809  0.23098461  0.97586800     1.03900
O10         O  0.13081390  0.27812878  0.97502993    -0.84100
O11         O  0.13156970  0.22126702  0.01565968    -0.81100
C12         C  0.15387970  0.20743845  0.00182020     0.99400
O13         O  0.13556509  0.17885232  0.98225033    -0.81200
O14         O  0.08399532  0.13581264  0.93564058    -0.83800
C15         C  0.09862951  0.16368229  0.91507300     1.03900
O16         O  0.09414859  0.19753339  0.91560973    -0.76600
O17         O  0.08559601  0.26592752  0.93853462    -0.76700
C18         C  0.12248529  0.28991203  0.95128410     1.03800
Cr19       Cr  0.08347149  0.23184899  0.99909133     1.93700
Cr20       Cr  0.07049157  0.14292707  0.97704962     1.93200
Cr21       Cr  0.04670086  0.19941587  0.93830659     1.39100
O22         O  0.06720916  0.19152930  0.97128830    -1.21800
O23         O  0.23016351  0.45589543  0.85625190    -0.84100
O24         O  0.29691020  0.46252911  0.82123516    -0.81100
C25         C  0.33325015  0.46542370  0.81386698     0.99400
O26         O  0.34805190  0.44420025  0.82753519    -0.81200
O27         O  0.38049224  0.50178160  0.87390425    -0.83800
C28         C  0.39720013  0.01705566  0.90249922     1.03900
O29         O  0.36395580  0.00019661  0.91933901    -0.76600
O30         O  0.27901716  0.50164519  0.88763024    -0.76800
C31         C  0.25020170  0.49359774  0.86848134     1.03900
O32         O  0.20980028  0.36769476  0.87205027    -0.84100
O33         O  0.26982471  0.36915694  0.83319799    -0.81100
C34         C  0.28659184  0.35018081  0.84782295     0.99400
O35         O  0.31409753  0.37092036  0.86756620    -0.81200
O36         O  0.35524820  0.42790891  0.91176683    -0.83800
C37         C  0.32686478  0.40969550  0.93170819     1.03900
O38         O  0.29091489  0.41055511  0.93150530    -0.76600
O39         O  0.21880620  0.41212432  0.90841861    -0.76700
C40         C  0.19734238  0.37467263  0.89598014     1.03800
Cr41       Cr  0.25460096  0.41527190  0.84755114     1.93700
Cr42       Cr  0.34574376  0.43617071  0.87041636     1.93200
Cr43       Cr  0.28482980  0.45500020  0.90822700     1.39100
O44         O  0.29478205  0.43521414  0.87557624    -1.21800
O45         O  0.23950722  0.27619517  0.31981189    -0.84100
O46         O  0.30560401  0.33618300  0.35553468    -0.81100
C47         C  0.34093451  0.37020429  0.36367529     1.01800
O48         O  0.35563836  0.40692419  0.35053820    -0.81200
O49         O  0.39278006  0.39072948  0.30296831    -0.83800
C50         C  0.39397732  0.37209980  0.28000246     1.03900
O51         O  0.36035484  0.35314130  0.26351550    -0.76600
O52         O  0.28964230  0.28026443  0.28942272    -0.76800
C53         C  0.25878232  0.25818228  0.30721300     1.03900
O54         O  0.21898735  0.34327400  0.30483670    -0.84100
O55         O  0.27562807  0.39983012  0.34596332    -0.81100
C56         C  0.29126747  0.43657689  0.33266766     0.99400
O57         O  0.31797753  0.44524122  0.31209595    -0.81200
O58         O  0.36190488  0.43543022  0.26637054    -0.83800
C59         C  0.33539237  0.42151741  0.24516101     1.03900
O60         O  0.30141616  0.38313438  0.24532696    -0.76600
O61         O  0.22933912  0.30946098  0.26793061    -0.76700
C62         C  0.20687843  0.32398281  0.28082300     1.03800
Cr63       Cr  0.26317183  0.34061450  0.32954055     1.93700
Cr64       Cr  0.35311013  0.41547841  0.30765563     1.93200
Cr65       Cr  0.29576498  0.33352595  0.26922839     1.39100
O66         O  0.30410511  0.36320195  0.30190686    -1.21800
O67         O  0.02108385  0.28298481  0.17897960    -0.84100
O68         O  0.04754561  0.36076631  0.15034321    -0.81100
C69         C  0.01585101  0.36873858  0.15438315     0.99400
O70         O  0.01144645  0.38367797  0.17807621    -0.81200
O71         O  0.01112755  0.39522608  0.23633342    -0.83800
C72         C  0.48169894  0.35967056  0.23884790     1.03900
O73         O  0.48772277  0.32715353  0.23697933    -0.76600
O74         O  0.01674292  0.27001668  0.22553246    -0.76800
C75         C  0.00467891  0.25691036  0.20001822     1.03900
O76         O  0.10879914  0.31588045  0.20329172    -0.84100
O77         O  0.13526860  0.39589047  0.17738926    -0.81100
C78         C  0.13906689  0.43296242  0.17158615     0.99400
O79         O  0.10680201  0.43940102  0.17619605    -0.81200
O80         O  0.10603051  0.44082611  0.23611159    -0.83800
C81         C  0.09949474  0.42658173  0.26170218     1.03900
O82         O  0.06988016  0.38659086  0.26744287    -0.76600
O83         O  0.10202161  0.33530531  0.24729584    -0.76700
C84         C  0.12043383  0.32219925  0.22956492     1.03800
Cr85       Cr  0.07705381  0.34057770  0.17975815     1.93700
Cr86       Cr  0.05911245  0.41095899  0.20676214     1.93200
Cr87       Cr  0.04427926  0.33113120  0.24262766     1.39100
O88         O  0.06049955  0.36070959  0.20972106    -1.21800
O89         O  0.28915462  0.02883847  0.16236178    -0.84100
O90         O  0.36685480  0.05970704  0.19378331    -0.81100
C91         C  0.37269380  0.02665854  0.19301284     0.99400
O92         O  0.38454490  0.01628592  0.16995969    -0.81200
O93         O  0.39338287  0.50514048  0.11148429    -0.83800
C94         C  0.35504454  0.47553679  0.10332955     1.03900
O95         O  0.32210951  0.48115434  0.10605308    -0.76600
O96         O  0.27722965  0.03210364  0.11631548    -0.76800
C97         C  0.26245013  0.50299260  0.15157170     1.03900
O98         O  0.32470091  0.11610061  0.13612950    -0.84100
O99         O  0.40375440  0.14200937  0.16329955    -0.81100
C100        C  0.44106452  0.14505445  0.16770506     0.99400
O101        O  0.44628203  0.11174541  0.16445263    -0.81200
O102        O  0.44705939  0.10127835  0.10612996    -0.83800
C103        C  0.43278391  0.09498632  0.08058773     1.03900
O104        O  0.39208550  0.06748857  0.07527953    -0.76600
O105        O  0.35088472  0.11156771  0.09391118    -0.76700
C106        C  0.33673800  0.13016841  0.11065176     1.03800
Cr107      Cr  0.34732331  0.08500625  0.16176602     1.93700
Cr108      Cr  0.41389531  0.05925334  0.13788274     1.93200
Cr109      Cr  0.33779110  0.05070762  0.09981094     1.39100
O110        O  0.36663242  0.06533103  0.13313534    -1.21800
O111        O  0.29608992  0.27256489  0.00998313    -0.84100
O112        O  0.36956190  0.31411938  0.97480208    -0.81100
C113        C  0.37652526  0.35351357  0.97602376     0.99400
O114        O  0.39552162  0.37787506  0.99753919    -0.81200
O115        O  0.42034831  0.40173550  0.05384014    -0.83800
C116        C  0.38482754  0.39737789  0.06449031     1.03900
O117        O  0.35035889  0.35964505  0.06605510    -0.76600
O118        O  0.29126593  0.27112194  0.05727945    -0.76800
C119        C  0.27333113  0.26544584  0.03266194     1.03900
O120        O  0.32908522  0.21977508  0.03522719    -0.84100
O121        O  0.40553714  0.26490840  0.00363013    -0.81100
C122        C  0.44260130  0.29653963  0.99535871     0.99400
O123        O  0.44969091  0.33592852  0.99563953    -0.81200
O124        O  0.46331625  0.34983638  0.05369929    -0.83800
C125        C  0.45469466  0.34714510  0.08025446     1.03900
O126        O  0.41652493  0.33940879  0.08899650    -0.76600
O127        O  0.35906790  0.25231232  0.07641423    -0.76700
C128        C  0.34086401  0.21821410  0.06074409     1.03800
Cr129      Cr  0.35214615  0.27104136  0.00784925     1.93700
Cr130      Cr  0.42844678  0.36270708  0.02564955     1.93200
Cr131      Cr  0.35594483  0.30617542  0.06951186     1.39100
O132        O  0.37859482  0.31294065  0.03445094    -1.21800
O133        O  0.24169006  0.21108751  0.83293941    -0.84100
O134        O  0.19847861  0.13285090  0.86347562    -0.81100
C135        C  0.15829207  0.12409371  0.86316762     0.99400
O136        O  0.13492718  0.10914724  0.84066067    -0.81200
O137        O  0.11410956  0.09910717  0.78266046    -0.83800
C138        C  0.12059071  0.13705000  0.77553133     1.03900
O139        O  0.15926758  0.17055133  0.77614891    -0.76600
O140        O  0.24888818  0.22390880  0.78651048    -0.76800
C141        C  0.24990543  0.23715284  0.81196541     1.03900
O142        O  0.29594815  0.18063113  0.80368991    -0.84100
O143        O  0.24811217  0.10054561  0.83197571    -0.81100
C144        C  0.21549960  0.06248791  0.83756981     0.99400
O145        O  0.17580379  0.05426693  0.83401976    -0.81200
O146        O  0.16262377  0.05337992  0.77484088    -0.83800
C147        C  0.16528516  0.06809046  0.74953631     1.03900
O148        O  0.17630660  0.10837877  0.74548042    -0.76600
O149        O  0.26408210  0.15717564  0.76139021    -0.76700
C150        C  0.29784972  0.17131101  0.77745951     1.03800
Cr151      Cr  0.24292339  0.15471288  0.83074219     1.93700
Cr152      Cr  0.15092714  0.08284803  0.80789845     1.93200
Cr153      Cr  0.21154282  0.16276869  0.77003724     1.39100
O154        O  0.20212739  0.13325903  0.80286068    -1.21800
O155        O  0.46435650  0.20840047  0.69030045    -0.84100
O156        O  0.47257767  0.14864923  0.65605682    -0.81100
C157        C  0.47623523  0.11547391  0.64936042     0.99400
O158        O  0.45489810  0.07925145  0.66327252    -0.81200
O159        O  0.50400297  0.09881330  0.71334300    -0.83800
C160        C  0.01508178  0.11323279  0.73493798     1.03900
O161        O  0.99712718  0.12958494  0.75076386    -0.76600
O162        O  0.50819857  0.20429539  0.72258182    -0.76800
C163        C  0.50164193  0.22557878  0.70312015     1.03900
O164        O  0.37404693  0.14039653  0.70324087    -0.84100
O165        O  0.37868835  0.08383670  0.66419811    -0.81100
C166        C  0.35674251  0.04807601  0.67840663     0.99400
O167        O  0.37465722  0.03964671  0.69906090    -0.81200
O168        O  0.42423782  0.05286638  0.74712978    -0.83800
C169        C  0.40481020  0.06484455  0.76513476     1.03900
O170        O  0.40919615  0.10303272  0.76376763    -0.76600
O171        O  0.41688944  0.17797455  0.73961302    -0.76700
C172        C  0.37975241  0.16112162  0.72655862     1.03800
Cr173      Cr  0.42368786  0.14380627  0.68046709     1.93700
Cr174      Cr  0.43950933  0.07142685  0.70576098     1.93200
Cr175      Cr  0.45798308  0.15270565  0.74219875     1.39100
O176        O  0.44064023  0.12268996  0.70949957    -1.21800
O177        O  0.47710065  0.26024776  0.49392157    -0.84100
O178        O  0.45099264  0.31055505  0.52474787    -0.81100
C179        C  0.48122478  0.35120003  0.52150357     0.99400
O180        O  0.48395182  0.37196340  0.49872896    -0.81200
O181        O  0.98983328  0.38845153  0.44241603    -0.83800
C182        C  0.02212279  0.38234306  0.43679906     1.03900
O183        O  0.01698973  0.34401937  0.43798257    -0.76600
O184        O  0.48123714  0.25388362  0.44727306    -0.76800
C185        C  0.99364495  0.25233628  0.47432359     1.03900
O186        O  0.38887399  0.20800952  0.46856117    -0.84100
O187        O  0.36202491  0.25874521  0.49838183    -0.81100
C188        C  0.35643529  0.29138054  0.50276177     0.99400
O189        O  0.38788358  0.33053117  0.49778263    -0.81200
O190        O  0.39297653  0.33627902  0.43858565    -0.83800
C191        C  0.40166537  0.33092492  0.41303221     1.03900
O192        O  0.43241656  0.32229296  0.40761157    -0.76600
O193        O  0.39760452  0.23713875  0.42515689    -0.76700
C194        C  0.37818468  0.20456450  0.44206808     1.03800
Cr195      Cr  0.42096467  0.26249851  0.49415832     1.93700
Cr196      Cr  0.43807324  0.35215734  0.46892030     1.93200
Cr197      Cr  0.45548153  0.28998712  0.43182978     1.39100
O198        O  0.43764212  0.30098626  0.46507214    -1.21800
O199        O  0.25469421  0.03509324  0.35471814    -0.84100
O200        O  0.18672397  0.02524760  0.31933559    -0.81100
C201        C  0.14832774  0.01879375  0.31354058     0.99400
O202        O  0.13246407  0.03924134  0.32723719    -0.81200
O203        O  0.11122436  0.50118250  0.37209585    -0.83800
C204        C  0.10991212  0.48415705  0.39623174     1.03900
O205        O  0.14335829  0.50161826  0.41296909    -0.76600
O206        O  0.20890688  0.99245760  0.38864663    -0.76800
C207        C  0.24062179  0.50125502  0.36834830     1.03900
O208        O  0.27606089  0.12501808  0.36651228    -0.84100
O209        O  0.21505403  0.11881566  0.32686359    -0.81100
C210        C  0.19875469  0.13963626  0.33968673     0.99400
O211        O  0.17156136  0.12151976  0.36013067    -0.81200
O212        O  0.13726696  0.07439824  0.40985292    -0.83800
C213        C  0.16897993  0.09551382  0.42748369     1.03900
O214        O  0.20331152  0.09187544  0.42650066    -0.76600
O215        O  0.27113171  0.08375955  0.40362578    -0.76700
C216        C  0.29083293  0.12040504  0.39025504     1.03800
Cr217      Cr  0.23023530  0.07469388  0.34394442     1.93700
Cr218      Cr  0.14066008  0.05711237  0.36889586     1.93200
Cr219      Cr  0.20506293  0.04254595  0.40648358     1.39100
O220        O  0.19184977  0.05786682  0.37302381    -1.21800
O221        O  0.20512020  0.47164813  0.66278377    -0.84100
O222        O  0.13338187  0.43654656  0.69947670    -0.81100
C223        C  0.12481989  0.46796495  0.70002499     0.99400
O224        O  0.10598556  0.47428757  0.67880834    -0.81200
O225        O  0.08182257  0.47773238  0.62313132    -0.83800
C226        C  0.14374167  0.02224972  0.61041755     1.03900
O227        O  0.17579502  0.01503963  0.60938658    -0.76600
O228        O  0.20995393  0.47522995  0.61547539    -0.76800
C229        C  0.22771572  0.48783046  0.64012042     1.03900
O230        O  0.17514622  0.38669592  0.63656181    -0.84100
O231        O  0.09830357  0.35256474  0.66897377    -0.81100
C232        C  0.06097750  0.34610441  0.67752535     0.99400
O233        O  0.05277397  0.37769758  0.67755668    -0.81200
O234        O  0.03794938  0.38190234  0.62024959    -0.83800
C235        C  0.04627479  0.38796732  0.59369153     1.03900
O236        O  0.08456047  0.41763604  0.58477680    -0.76600
O237        O  0.14248007  0.38759459  0.59636943    -0.76700
C238        C  0.16299618  0.37310261  0.61107781     1.03800
Cr239      Cr  0.15074630  0.41303218  0.66492420     1.93700
Cr240      Cr  0.07356878  0.42802530  0.64922120     1.93200
Cr241      Cr  0.14502292  0.44475466  0.60368202     1.39100
O242        O  0.12326985  0.42866001  0.63913319    -1.21800
O243        O  0.21862149  0.25600418  0.52125576    -0.84100
O244        O  0.15889405  0.18617140  0.48727877    -0.81100
C245        C  0.12520479  0.14951609  0.48039856     0.99400
O246        O  0.08869809  0.13537231  0.49381220    -0.81200
O247        O  0.10945273  0.10491296  0.54302967    -0.83800
C248        C  0.12810829  0.10638662  0.56665904     1.03900
O249        O  0.14394899  0.14075885  0.58254548    -0.76600
O250        O  0.21542035  0.20983934  0.55452218    -0.76800
C251        C  0.23670476  0.23753481  0.53479534     1.03900
O252        O  0.14854033  0.27546978  0.53404424    -0.84100
O253        O  0.09275384  0.21395430  0.49525667    -0.81100
C254        C  0.05691681  0.19996396  0.50960337     0.99400
O255        O  0.04861132  0.17357693  0.53031345    -0.81200
O256        O  0.06132832  0.13429689  0.57756647    -0.83800
C257        C  0.07187298  0.16437750  0.59625834     1.03900
O258        O  0.10953496  0.19944015  0.59533748    -0.76600
O259        O  0.18341150  0.27014365  0.57198947    -0.76700
C260        C  0.16612741  0.28942296  0.55836159     1.03800
Cr261      Cr  0.15328478  0.23004698  0.51151450     1.93700
Cr262      Cr  0.08090761  0.14095147  0.53631528     1.93200
Cr263      Cr  0.16124746  0.20422622  0.57363290     1.39100
O264        O  0.13202733  0.19166812  0.54058897    -1.21800
C265        C  0.14985452  0.06494540  0.60011903    -0.15200
C266        C  0.12775882  0.06592106  0.57662964    -0.30300
H267        H  0.17258816  0.09533430  0.61153168     0.13900
H268        H  0.10709737  0.03521283  0.56481090     0.14400
C269        C  0.17271991  0.33961535  0.59861127    -0.15200
C270        C  0.16482300  0.32795109  0.57066020    -0.30300
H271        H  0.18463280  0.32299732  0.61284410     0.13900
H272        H  0.15260397  0.34460605  0.55668901     0.14400
C273        C  0.12768485  0.12271273  0.45659660    -0.15200
C274        C  0.16614398  0.12424046  0.44982079    -0.30300
H275        H  0.09681965  0.09882142  0.44602421     0.13900
H276        H  0.19632303  0.14611911  0.46182091     0.14400
C277        C  0.01266142  0.37574334  0.54582758    -0.15200
C278        C  0.01046472  0.36104752  0.57280390    -0.30300
H279        H  0.04060458  0.40809840  0.53980422     0.13900
H280        H  0.98178497  0.32989361  0.57977311     0.14400
C281        C  0.06758414  0.44557391  0.40562284    -0.15200
C282        C  0.06529326  0.41956336  0.42757947    -0.30300
H283        H  0.03726396  0.43835127  0.39419606     0.13900
H284        H  0.09553180  0.42403518  0.43772784     0.14400
C285        C  0.34214987  0.16204717  0.43037384    -0.15200
C286        C  0.33096695  0.15867031  0.40227211    -0.30300
H287        H  0.32314792  0.13442599  0.44503185     0.13900
H288        H  0.34946412  0.18686326  0.38791561     0.14400
C289        C  0.02570911  0.23660251  0.47896930    -0.15200
C290        C  0.02448969  0.21457450  0.50305281    -0.30300
H291        H  0.04964746  0.24197711  0.46205599     0.13900
H292        H  0.99857243  0.20706557  0.51897835     0.14400
C293        C  0.31251551  0.28426160  0.51302360    -0.15200
C294        C  0.28250147  0.24713187  0.52713199    -0.30300
H295        H  0.30458171  0.31022849  0.50865359     0.13900
H296        H  0.29161035  0.22250064  0.53308796     0.14400
C297        C  0.00317325  0.11935129  0.62516172    -0.15200
C298        C  0.04005711  0.15873236  0.61934777    -0.30300
H299        H  0.50033755  0.08837402  0.61498032     0.13900
H300        H  0.04747666  0.18783239  0.63219429     0.14400
C301        C  0.03484987  0.27036115  0.69652447    -0.15200
C302        C  0.02584193  0.30148205  0.68694640    -0.30300
H303        H  0.57209799  0.27908890  0.69867723     0.13900
H304        H  0.99137723  0.29392612  0.68579649     0.14400
C305        C  0.30964270  0.01592762  0.67186092    -0.15200
C306        C  0.28923794  0.01689171  0.64756816    -0.30300
H307        H  0.29083498  0.99056904  0.68799666     0.13900
H308        H  0.29362371  0.54390462  0.62550949     0.14400
C309        C  0.15336816  0.03890608  0.72388716    -0.15200
C310        C  0.14446711  0.99653275  0.72444836    -0.30300
H311        H  0.15223733  0.05342665  0.70337263     0.13900
H312        H  0.14203505  0.48471083  0.74612395     0.14400
C313        C  0.08300713  0.14131785  0.76481422    -0.15200
C314        C  0.05501803  0.11259518  0.74504368    -0.30300
H315        H  0.07923052  0.16889714  0.77225603     0.13900
H316        H  0.06159201  0.08754961  0.73602664     0.14400
C317        C  0.33987113  0.17629094  0.76559516    -0.15200
C318        C  0.34206011  0.16475884  0.73817722    -0.30300
H319        H  0.36812385  0.18652881  0.77997325     0.13900
H320        H  0.31318122  0.15347116  0.72420673     0.14400
C321        C  0.34997484  0.43539343  0.08922475    -0.15200
C322        C  0.38565785  0.43655427  0.07685898    -0.30300
H323        H  0.31729419  0.40542802  0.08855194     0.13900
H324        H  0.41765204  0.46743669  0.07665442     0.14400
C325        C  0.33469382  0.16883326  0.10029439    -0.15200
C326        C  0.33430504  0.17606702  0.07192244    -0.30300
H327        H  0.33543927  0.19247196  0.11595448     0.13900
H328        H  0.33082074  0.15105096  0.05640829     0.14400
C329        C  0.48786705  0.36567542  0.12858619    -0.15200
C330        C  0.49019143  0.35482751  0.10116835    -0.30300
H331        H  0.45970892  0.36929874  0.13515640     0.13900
H332        H  0.51902143  0.35302585  0.09377835     0.14400
C333        C  0.47912626  0.18819131  0.17637347    -0.15200
C334        C  0.47316801  0.21611309  0.19320790    -0.30300
H335        H  0.51222418  0.19764836  0.16832787     0.13900
H336        H  0.93670044  0.19976320  0.20351747     0.14400
C337        C  0.21839044  0.46583001  0.15952950    -0.15200
C338        C  0.18129884  0.46891482  0.15928107    -0.30300
H339        H  0.19084001  0.98938438  0.13258132     0.13900
H340        H  0.18275950  0.49917000  0.15160818     0.14400
C341        C  0.12567692  0.45681094  0.28540362    -0.15200
C342        C  0.13640618  0.49979240  0.28588010    -0.30300
H343        H  0.13401621  0.44288217  0.30372374     0.13900
H344        H  0.12405441  0.51273426  0.26918226     0.14400
C345        C  0.36519877  0.36690109  0.38853948    -0.15200
C346        C  0.37657383  0.33527552  0.38904761    -0.30300
H347        H  0.37628420  0.39189911  0.40543064     0.13900
H348        H  0.36939368  0.31351790  0.37052785     0.14400
C349        C  0.34487446  0.44957592  0.21928570    -0.15200
C350        C  0.37071272  0.49408070  0.22018155    -0.30300
H351        H  0.32865533  0.43344845  0.19920059     0.13900
H352        H  0.38018200  0.01886103  0.23962372     0.14400
C353        C  0.43864774  0.35227723  0.24910386    -0.15200
C354        C  0.43640051  0.37583238  0.27118038    -0.30300
H355        H  0.40844745  0.32611367  0.23908769     0.13900
H356        H  0.46676366  0.39972390  0.28228275     0.14400
C357        C  0.16579208  0.31906174  0.26850159    -0.15200
C358        C  0.15668951  0.31526778  0.24011899    -0.30300
H359        H  0.14469097  0.32433161  0.28345814     0.13900
H360        H  0.17781363  0.31075005  0.22478138     0.14400
C361        C  0.24479722  0.21087950  0.31300771    -0.15200
C362        C  0.21107821  0.18556131  0.33124163    -0.30300
H363        H  0.26326862  0.19701520  0.30266925     0.13900
H364        H  0.19317567  0.19988320  0.34179311     0.14400
C365        C  0.28012853  0.47083715  0.34101326    -0.15200
C366        C  0.25118941  0.46574639  0.36205222    -0.30300
H367        H  0.29624707  0.50164480  0.32870247     0.13900
H368        H  0.23435302  0.43490376  0.37427073     0.14400
C369        C  0.37692482  0.99667782  0.79447844    -0.15200
C370        C  0.37695378  0.03441460  0.78819833    -0.30300
H371        H  0.38154681  0.48563014  0.77816114     0.13900
H372        H  0.35656492  0.04386396  0.80084242     0.14400
C373        C  0.22303286  0.02663338  0.84824720    -0.15200
C374        C  0.25989158  0.03478402  0.86300080    -0.30300
H375        H  0.19696761  0.99243654  0.84432420     0.13900
H376        H  0.28465379  0.06882487  0.86856489     0.14400
C377        C  0.26089947  0.28369060  0.81672380    -0.15200
C378        C  0.27479441  0.30366664  0.84238850    -0.30300
H379        H  0.25878974  0.30228647  0.79856270     0.13900
H380        H  0.27971299  0.28588039  0.85995734     0.14400
C381        C  0.36356965  0.37145441  0.95181233    -0.15200
C382        C  0.33733760  0.38918700  0.95581595    -0.30300
H383        H  0.37429770  0.36861751  0.93028120     0.13900
H384        H  0.32328782  0.38824150  0.97695141     0.14400
C385        C  0.50719839  0.13501326  0.05675142    -0.15200
C386        C  0.46303198  0.12004343  0.05642083    -0.30300
H387        H  0.01782869  0.11468336  0.07351296     0.13900
H388        H  0.44819816  0.12523371  0.03725079     0.14400
C389        C  0.11860929  0.15555194  0.88918261    -0.15200
C390        C  0.13854948  0.13085810  0.88961516    -0.30300
H391        H  0.11797775  0.17146680  0.86915766     0.13900
H392        H  0.14314405  0.11814374  0.90992571     0.14400
C393        C  0.44774281  0.06928097  0.93858237    -0.15200
C394        C  0.43762582  0.05827906  0.91074396    -0.30300
H395        H  0.42640585  0.04717924  0.95553147     0.13900
H396        H  0.46079980  0.07844860  0.89385696     0.14400
C397        C  0.15642172  0.33191366  0.93824404    -0.15200
C398        C  0.15782796  0.33804481  0.90966201    -0.30300
H399        H  0.18369747  0.35571972  0.95171854     0.13900
H400        H  0.13288153  0.31221848  0.89587403     0.14400
C401        C  0.47020579  0.24760597  0.97817141    -0.15200
C402        C  0.47850289  0.28818673  0.98620561    -0.30300
H403        H  0.93276214  0.21413634  0.97957911     0.13900
H404        H  0.51271138  0.31580468  0.98686593     0.14400
C405        C  0.22474915  0.24886645  0.03026956    -0.15200
C406        C  0.20187054  0.22462256  0.00724091    -0.30300
H407        H  0.20757738  0.25502340  0.04769440     0.13900
H408        H  0.21941418  0.21655788  0.99103524     0.14400
O409        O  0.05348196  0.76898390  0.99293486    -0.84100
O410        O  0.03710706  0.69556950  0.02575708    -0.81100
C411        C  0.03120810  0.65745971  0.03161676     0.99400
O412        O  0.05235424  0.64241752  0.01777798    -0.81200
O413        O  0.99898315  0.61382571  0.96988246    -0.83800
C414        C  0.47792803  0.60637270  0.94261670     1.03900
O415        O  0.49741081  0.63983119  0.92618547    -0.76600
O416        O  0.00244367  0.72217606  0.96337973    -0.76800
C417        C  0.01536484  0.75291037  0.98187831     1.03900
O418        O  0.13769955  0.78200532  0.97710113    -0.84100
O419        O  0.12893975  0.71803468  0.01601981    -0.81100
C420        C  0.14969867  0.70420078  0.00073820     0.99400
O421        O  0.13027348  0.67878728  0.97978240    -0.81200
O422        O  0.07563976  0.64235290  0.93330639    -0.83800
C423        C  0.09040180  0.67063336  0.91308962     1.03900
O424        O  0.08798173  0.70566589  0.91456027    -0.76600
O425        O  0.09321480  0.77825571  0.94184722    -0.76700
C426        C  0.13122196  0.79705962  0.95395229     1.03800
Cr427      Cr  0.08761302  0.73807695  0.00095330     1.93700
Cr428      Cr  0.06455243  0.64823927  0.97505407     1.93200
Cr429      Cr  0.04662700  0.71346346  0.94049140     1.39100
O430        O  0.06639563  0.69989435  0.97180550    -1.21800
O431        O  0.24691055  0.96075076  0.86006160    -0.84100
O432        O  0.31404542  0.96656561  0.82556343    -0.81100
C433        C  0.34980311  0.96793003  0.81836844     0.99400
O434        O  0.36265219  0.94459210  0.83162405    -0.81200
O435        O  0.39672125  0.99814025  0.87924034    -0.83800
C436        C  0.38135297  0.51975816  0.89767607     1.03900
O437        O  0.34889488  0.50117773  0.91513282    -0.76600
O438        O  0.29715746  0.00575986  0.89080405    -0.76800
C439        C  0.26829705  0.99861935  0.87181064     1.03900
O440        O  0.22298086  0.87153723  0.87461837    -0.84100
O441        O  0.28231314  0.87253633  0.83491052    -0.81100
C442        C  0.29580458  0.85039298  0.84909528     0.99400
O443        O  0.32251163  0.86811638  0.86970223    -0.81200
O444        O  0.36467592  0.92139945  0.91569284    -0.83800
C445        C  0.33632196  0.90642461  0.93591836     1.03900
O446        O  0.30228933  0.91074266  0.93527516    -0.76600
O447        O  0.23319343  0.91632087  0.91105713    -0.76700
C448        C  0.21083922  0.87897743  0.89858560     1.03800
Cr449      Cr  0.26948944  0.91910371  0.85073761     1.93700
Cr450      Cr  0.35799021  0.93320254  0.87432370     1.93200
Cr451      Cr  0.29961612  0.95685969  0.91162368     1.39100
O452        O  0.30891339  0.93615914  0.87913829    -1.21800
O453        O  0.24821128  0.78312433  0.32033420    -0.84100
O454        O  0.31635052  0.84291597  0.35487542    -0.81100
C455        C  0.35222726  0.87694851  0.36234746     1.01800
O456        O  0.36632143  0.91362236  0.34915347    -0.81200
O457        O  0.39924314  0.89932345  0.29844455    -0.83800
C458        C  0.39816344  0.88013126  0.27513781     1.03900
O459        O  0.36308990  0.86142362  0.25989499    -0.76600
O460        O  0.29632445  0.78872414  0.28777262    -0.76800
C461        C  0.26745985  0.76609695  0.30648661     1.03900
O462        O  0.22515341  0.85017838  0.30901937    -0.84100
O463        O  0.28437294  0.90561071  0.34896984    -0.81100
C464        C  0.29781925  0.94216087  0.33584867     0.99400
O465        O  0.32401348  0.95211804  0.31479071    -0.81200
O466        O  0.36322086  0.94367500  0.26584489    -0.83800
C467        C  0.33478677  0.92921114  0.24564605     1.03900
O468        O  0.30126569  0.89058631  0.24661213    -0.76600
O469        O  0.23219751  0.81617649  0.27109655    -0.76700
C470        C  0.21101901  0.83115514  0.28514190     1.03800
Cr471      Cr  0.27161503  0.84720234  0.33114608     1.93700
Cr472      Cr  0.35930167  0.92311911  0.30684953     1.93200
Cr473      Cr  0.29898464  0.84130070  0.26906139     1.39100
O474        O  0.31018034  0.87061739  0.30216326    -1.21800
O475        O  0.02220298  0.78044194  0.18093797    -0.84100
O476        O  0.06342935  0.85057779  0.14394818    -0.81100
C477        C  0.03255726  0.85995857  0.14228967     0.99400
O478        O  0.02695562  0.88092219  0.16249605    -0.81200
O479        O  0.02194061  0.90718581  0.21719329    -0.83800
C480        C  0.48154698  0.85742589  0.23544922     1.03900
O481        O  0.48620360  0.82389322  0.23679085    -0.76600
O482        O  0.01737885  0.77620133  0.22824478    -0.76800
C483        C  0.00521396  0.75827710  0.20356083     1.03900
O484        O  0.10402732  0.80544391  0.21004592    -0.84100
O485        O  0.14432231  0.88130948  0.17851628    -0.81100
C486        C  0.15425274  0.91903364  0.16918007     0.99400
O487        O  0.12412297  0.92909567  0.16567952    -0.81200
O488        O  0.11758754  0.94624005  0.22246964    -0.83800
C489        C  0.10941071  0.93910368  0.24899763     1.03900
O490        O  0.07697439  0.90246428  0.25788788    -0.76600
O491        O  0.10530361  0.84266034  0.24843934    -0.76700
C492        C  0.11922945  0.82071876  0.23475750     1.03800
Cr493      Cr  0.08245035  0.83179171  0.18002011     1.93700
Cr494      Cr  0.07224881  0.91224996  0.19269010     1.93200
Cr495      Cr  0.04912354  0.84142119  0.23954373     1.39100
O496        O  0.06750098  0.86155703  0.20418310    -1.21800
O497        O  0.29148104  0.52007186  0.17099473    -0.84100
O498        O  0.37301068  0.55541192  0.19672926    -0.81100
C499        C  0.37719859  0.52147464  0.19445985     0.99400
O500        O  0.38716168  0.51157428  0.17049825    -0.81200
O501        O  0.39189081  0.00651462  0.11177570    -0.83800
C502        C  0.35273697  0.97830209  0.10357301     1.03900
O503        O  0.32234077  0.98794944  0.10338565    -0.76600
O504        O  0.27139450  0.51654826  0.12572835    -0.76800
C505        C  0.26286384  0.01687095  0.14118285     1.03900
O506        O  0.31703439  0.60536603  0.14461021    -0.84100
O507        O  0.40125586  0.63632720  0.16560846    -0.81100
C508        C  0.43931111  0.64058680  0.16865571     0.99400
O509        O  0.44524591  0.60777390  0.16544181    -0.81200
O510        O  0.44168014  0.59863574  0.10675912    -0.83800
C511        C  0.42469802  0.59242732  0.08192101     1.03900
O512        O  0.38345930  0.56496606  0.07789883    -0.76600
O513        O  0.33687988  0.60063058  0.10054679    -0.76700
C514        C  0.32463471  0.61897894  0.11880902     1.03800
Cr515      Cr  0.34675290  0.57782421  0.16714241     1.93700
Cr516      Cr  0.41306353  0.55580907  0.13868885     1.93200
Cr517      Cr  0.33075578  0.54196610  0.10504728     1.39100
O518        O  0.36366152  0.55885823  0.13673917    -1.21800
O519        O  0.29162676  0.76430891  0.01460752    -0.84100
O520        O  0.37020545  0.80782713  0.98436749    -0.81100
C521        C  0.37901755  0.84787428  0.98510130     0.99400
O522        O  0.39577543  0.87145730  0.00729861    -0.81200
O523        O  0.41118917  0.89296291  0.06450764    -0.83800
C524        C  0.37508209  0.89032679  0.07196668     1.03900
O525        O  0.33926848  0.85329203  0.07210635    -0.76600
O526        O  0.28004557  0.76415853  0.06117807    -0.76800
C527        C  0.26586085  0.75778249  0.03554807     1.03900
O528        O  0.32154935  0.71178357  0.04391993    -0.84100
O529        O  0.40172913  0.75730786  0.01592347    -0.81100
C530        C  0.43955183  0.78905104  0.00901636     0.99400
O531        O  0.44827432  0.82870760  0.01154391    -0.81200
O532        O  0.45146666  0.84045253  0.07113226    -0.83800
C533        C  0.43743941  0.83832641  0.09665044     1.03900
O534        O  0.39774071  0.82953409  0.10139075    -0.76600
O535        O  0.34169181  0.74234049  0.08691048    -0.76700
C536        C  0.32773637  0.70905869  0.07050690     1.03800
Cr537      Cr  0.34816521  0.76367697  0.01699470     1.93700
Cr538      Cr  0.42253008  0.85427499  0.03886401     1.93200
Cr539      Cr  0.34182169  0.79782073  0.07765729     1.39100
O540        O  0.37063879  0.80477504  0.04461886    -1.21800
O541        O  0.23537532  0.71089436  0.83196856    -0.84100
O542        O  0.18690951  0.63336571  0.86213842    -0.81100
C543        C  0.14799541  0.62828851  0.86149415     0.99400
O544        O  0.12457332  0.61434415  0.83896107    -0.81200
O545        O  0.10461570  0.60365332  0.78106050    -0.83800
C546        C  0.11303462  0.64232417  0.77425312     1.03900
O547        O  0.15233564  0.67454702  0.77511994    -0.76600
O548        O  0.24211345  0.72397894  0.78548205    -0.76800
C549        C  0.24570550  0.73751647  0.81113573     1.03900
O550        O  0.28477257  0.67579997  0.80276757    -0.84100
O551        O  0.23238983  0.59610701  0.83026820    -0.81100
C552        C  0.19844443  0.55932161  0.83641929     0.99400
O553        O  0.15976190  0.55419997  0.83397703    -0.81200
O554        O  0.14909648  0.55375605  0.77486298    -0.83800
C555        C  0.15310796  0.56806804  0.74935315     1.03900
O556        O  0.16501445  0.60853962  0.74468476    -0.76600
O557        O  0.25287906  0.65471482  0.76026466    -0.76700
C558        C  0.28650344  0.66769105  0.77628591     1.03800
Cr559      Cr  0.23179406  0.65256943  0.82963767     1.93700
Cr560      Cr  0.13853012  0.58513904  0.80703582     1.93200
Cr561      Cr  0.20224960  0.66320954  0.76896656     1.39100
O562        O  0.19125259  0.63362261  0.80183572    -1.21800
O563        O  0.45612005  0.71061373  0.68888814    -0.84100
O564        O  0.46346428  0.65044853  0.65423304    -0.81100
C565        C  0.46597448  0.61660684  0.64751575     0.99400
O566        O  0.44169176  0.57981487  0.66017221    -0.81200
O567        O  0.48873381  0.59591089  0.71055954    -0.83800
C568        C  0.01062568  0.62129090  0.73207562     1.03900
O569        O  0.99149171  0.63671877  0.74767234    -0.76600
O570        O  0.49684287  0.70297439  0.72198238    -0.76800
C571        C  0.49232047  0.72615211  0.70290050     1.03900
O572        O  0.36416140  0.64426700  0.69964227    -0.84100
O573        O  0.36772869  0.58784624  0.66006153    -0.81100
C574        C  0.34448698  0.55168822  0.67371408     0.99400
O575        O  0.36088680  0.54194520  0.69460660    -0.81200
O576        O  0.40786815  0.55084858  0.74318489    -0.83800
C577        C  0.38831704  0.56273129  0.76112623     1.03900
O578        O  0.39393451  0.60142039  0.76031612    -0.76600
O579        O  0.40573346  0.67847753  0.73725601    -0.76700
C580        C  0.36919152  0.66304502  0.72367386     1.03800
Cr581      Cr  0.41397740  0.64666232  0.67764604     1.93700
Cr582      Cr  0.42499195  0.57096314  0.70226971     1.93200
Cr583      Cr  0.44479567  0.65118813  0.74004906     1.39100
O584        O  0.42813701  0.62302614  0.70669068    -1.21800
O585        O  0.48030659  0.76445106  0.49779047    -0.84100
O586        O  0.45257982  0.81351649  0.52841642    -0.81100
C587        C  0.48270298  0.85423280  0.52538193     0.99400
O588        O  0.48587545  0.87482127  0.50241919    -0.81200
O589        O  0.00353000  0.88353554  0.47300756    -0.83800
C590        C  0.01900042  0.88463682  0.44834752     1.03900
O591        O  0.99783762  0.85276993  0.43098764    -0.76600
O592        O  0.48384213  0.75631744  0.45127418    -0.76800
C593        C  0.99439156  0.75253039  0.47459994     1.03900
O594        O  0.39250822  0.71052558  0.47211186    -0.84100
O595        O  0.36459259  0.76082119  0.50106681    -0.81100
C596        C  0.35821438  0.79304178  0.50484407     0.99400
O597        O  0.38929516  0.83246026  0.49984395    -0.81200
O598        O  0.39671479  0.83949233  0.44079099    -0.83800
C599        C  0.40553066  0.83360559  0.41539107     1.03900
O600        O  0.43604847  0.82452887  0.41038661    -0.76600
O601        O  0.40044076  0.73941453  0.42874582    -0.76700
C602        C  0.38155216  0.70673370  0.44564659     1.03800
Cr603      Cr  0.42377379  0.76549235  0.49755518     1.93700
Cr604      Cr  0.44087368  0.85496443  0.47182686     1.93200
Cr605      Cr  0.45848246  0.79233422  0.43521797     1.39100
O606        O  0.44055665  0.80381500  0.46829052    -1.21800
O607        O  0.26142397  0.53827722  0.35530816    -0.84100
O608        O  0.19712224  0.53175447  0.31841845    -0.81100
C609        C  0.16104437  0.52882080  0.31037409     0.99400
O610        O  0.14610824  0.55103293  0.32297980    -0.81200
O611        O  0.10575736  0.99286702  0.37745295    -0.83800
C612        C  0.10771781  0.97741661  0.40154079     1.03900
O613        O  0.14163396  0.99843511  0.41751551    -0.76600
O614        O  0.21139287  0.49475770  0.38694151    -0.76800
C615        C  0.23741699  0.99938260  0.36931743     1.03900
O616        O  0.28472268  0.62840146  0.36807650    -0.84100
O617        O  0.22813658  0.62676758  0.32644222    -0.81100
C618        C  0.21177416  0.64786051  0.33897806     0.99400
O619        O  0.18404583  0.62985040  0.35903785    -0.81200
O620        O  0.14303936  0.57994820  0.40643703    -0.83800
C621        C  0.17296275  0.59844610  0.42553579     1.03900
O622        O  0.20654817  0.59359154  0.42559873    -0.76600
O623        O  0.27510936  0.58514976  0.40511701    -0.76700
C624        C  0.29695943  0.62229699  0.39236361     1.03800
Cr625      Cr  0.23987969  0.58003255  0.34393922     1.93700
Cr626      Cr  0.14989659  0.56533818  0.36545491     1.93200
Cr627      Cr  0.20833574  0.54484749  0.40511511     1.39100
O628        O  0.19924455  0.56317831  0.37152389    -1.21800
O629        O  0.21557779  0.96887529  0.66457292    -0.84100
O630        O  0.13898815  0.93635065  0.69692453    -0.81100
C631        C  0.13332260  0.96959605  0.69769488     0.99400
O632        O  0.11813277  0.97952820  0.67595136    -0.81200
O633        O  0.10547266  0.99201033  0.61854569    -0.83800
C634        C  0.11655911  0.50838571  0.61119889     1.03900
O635        O  0.14982756  0.50376059  0.60665753    -0.76600
O636        O  0.22619137  0.97562321  0.61777269    -0.76800
C637        C  0.24115252  0.98559332  0.64315305     1.03900
O638        O  0.18055000  0.88556027  0.63482438    -0.84100
O639        O  0.10109667  0.85491100  0.66393624    -0.81100
C640        C  0.06392497  0.85097409  0.67043310     0.99400
O641        O  0.05838514  0.88427017  0.66916162    -0.81200
O642        O  0.05493014  0.89730004  0.61082458    -0.83800
C643        C  0.06791984  0.90819837  0.58511861     1.03900
O644        O  0.10840016  0.93658452  0.57975232    -0.76600
O645        O  0.15590783  0.89491109  0.59328303    -0.76700
C646        C  0.17100257  0.87544606  0.60857048     1.03800
Cr647      Cr  0.15734302  0.91308919  0.66293161     1.93700
Cr648      Cr  0.08799489  0.93803286  0.64328857     1.93200
Cr649      Cr  0.16435266  0.95393967  0.60272030     1.39100
O650        O  0.13652148  0.93470703  0.63626183    -1.21800
O651        O  0.21934395  0.75444331  0.52051025    -0.84100
O652        O  0.16010467  0.68554245  0.48608512    -0.81100
C653        C  0.12686479  0.64869846  0.47909411     0.99400
O654        O  0.09043903  0.63334552  0.49271036    -0.81200
O655        O  0.11272063  0.60529614  0.54235749    -0.83800
C656        C  0.12982934  0.60681499  0.56657628     1.03900
O657        O  0.14229070  0.64027025  0.58290134    -0.76600
O658        O  0.21532220  0.70815076  0.55411026    -0.76800
C659        C  0.23720188  0.73621947  0.53462978     1.03900
O660        O  0.14979235  0.77495244  0.53231486    -0.84100
O661        O  0.09396400  0.71339776  0.49371387    -0.81100
C662        C  0.05685217  0.69690100  0.50694075     0.99400
O663        O  0.04844107  0.67031241  0.52757497    -0.81200
O664        O  0.06202954  0.63454649  0.57626928    -0.83800
C665        C  0.07176914  0.66586602  0.59399338     1.03900
O666        O  0.10951475  0.70080598  0.59298675    -0.76600
O667        O  0.18531289  0.76979685  0.56987657    -0.76700
C668        C  0.16866049  0.78953934  0.55617697     1.03800
Cr669      Cr  0.15428524  0.72919600  0.51019576     1.93700
Cr670      Cr  0.08223094  0.63964809  0.53497866     1.93200
Cr671      Cr  0.16124193  0.70381791  0.57252687     1.39100
O672        O  0.13262675  0.69095070  0.53925046    -1.21800
C673        C  0.11730228  0.54944370  0.60216034    -0.15200
C674        C  0.13342143  0.56838094  0.57637127    -0.30300
H675        H  0.10061769  0.56210139  0.61579090     0.13900
H676        H  0.14541830  0.55283191  0.56125825     0.14400
C677        C  0.17758155  0.84019808  0.59601219    -0.15200
C678        C  0.16996958  0.82942202  0.56799797    -0.30300
H679        H  0.18667801  0.82132210  0.61035819     0.13900
H680        H  0.15998428  0.84779129  0.55384118     0.14400
C681        C  0.13004054  0.62311137  0.45489439    -0.15200
C682        C  0.16893068  0.62554835  0.44837381    -0.30300
H683        H  0.09960358  0.59957916  0.44375521     0.13900
H684        H  0.19852927  0.64675680  0.46107803     0.14400
C685        C  0.99810887  0.85011428  0.56187822    -0.15200
C686        C  0.03604422  0.88977955  0.56077063    -0.30300
H687        H  0.99044903  0.82941985  0.58097655     0.13900
H688        H  0.04558228  0.90812035  0.54055764     0.14400
C689        C  0.06912150  0.93530079  0.41122013    -0.15200
C690        C  0.06062072  0.92451153  0.43921765    -0.30300
H691        H  0.04518322  0.91421634  0.39498073     0.13900
H692        H  0.08266602  0.94714000  0.45567707     0.14400
C693        C  0.34591072  0.66378780  0.43388977    -0.15200
C694        C  0.33688364  0.65973618  0.40540472    -0.30300
H695        H  0.32550163  0.63670164  0.44858672     0.13900
H696        H  0.35715472  0.68746829  0.39107829     0.14400
C697        C  0.02893955  0.74005424  0.47988292    -0.15200
C698        C  0.02218599  0.70778931  0.49870917    -0.30300
H699        H  0.06086909  0.75865547  0.46887964     0.13900
H700        H  0.99034887  0.68983464  0.50990824     0.14400
C701        C  0.31364290  0.78481650  0.51441669    -0.15200
C702        C  0.28366133  0.74704656  0.52801257    -0.30300
H703        H  0.30502668  0.81021467  0.50973627     0.13900
H704        H  0.29330677  0.72292762  0.53427854     0.14400
C705        C  0.00160823  0.62349273  0.62213770    -0.15200
C706        C  0.03929213  0.66200918  0.61618739    -0.30300
H707        H  0.49099777  0.58948446  0.61381136     0.13900
H708        H  0.04704785  0.69177772  0.62837555     0.14400
C709        C  0.03203669  0.77589856  0.69206219    -0.15200
C710        C  0.02604352  0.80724276  0.67929774    -0.30300
H711        H  0.56356706  0.77816668  0.70051304     0.13900
H712        H  0.99237490  0.80089276  0.67553390     0.14400
C713        C  0.29748663  0.52012208  0.66678130    -0.15200
C714        C  0.27593036  0.52062162  0.64287640    -0.30300
H715        H  0.27932166  0.49452883  0.68292375     0.13900
H716        H  0.30819245  0.04031977  0.63051736     0.14400
C717        C  0.14163172  0.53781371  0.72433845    -0.15200
C718        C  0.13622641  0.49669990  0.72589087    -0.30300
H719        H  0.13829929  0.55039348  0.70359499     0.13900
H720        H  0.14757634  0.98217761  0.74449828     0.14400
C721        C  0.07706016  0.64848297  0.76302005    -0.15200
C722        C  0.05004623  0.62060572  0.74268354    -0.30300
H723        H  0.07335061  0.67599289  0.77069921     0.13900
H724        H  0.05684230  0.59569692  0.73365845     0.14400
C725        C  0.32832970  0.67317699  0.76397738    -0.15200
C726        C  0.33140484  0.66579602  0.73581046    -0.30300
H727        H  0.35595413  0.68092502  0.77844252     0.13900
H728        H  0.30324662  0.65703362  0.72159931     0.14400
C729        C  0.34376269  0.93492695  0.09246625    -0.15200
C730        C  0.37788932  0.93151297  0.08200672    -0.30300
H731        H  0.30989210  0.90671945  0.09219105     0.13900
H732        H  0.41109104  0.96091541  0.08147717     0.14400
C733        C  0.32084262  0.65760409  0.10979993    -0.15200
C734        C  0.32035765  0.66631274  0.08160445    -0.30300
H735        H  0.32195550  0.68060940  0.12609323     0.13900
H736        H  0.31733673  0.64203313  0.06563461     0.14400
C737        C  0.50844279  0.85482102  0.12110574    -0.15200
C738        C  0.46686750  0.84850633  0.12192320    -0.30300
H739        H  0.52221911  0.85091980  0.10099928     0.13900
H740        H  0.45300927  0.85049547  0.14254618     0.14400
C741        C  0.47710248  0.68412472  0.17612403    -0.15200
C742        C  0.47300169  0.70912620  0.19643005    -0.30300
H743        H  0.50856456  0.69592210  0.16477864     0.13900
H744        H  0.94756204  0.69304941  0.21713419     0.14400
C745        C  0.21495797  0.98556883  0.14537179    -0.15200
C746        C  0.20146677  0.95110705  0.16337868    -0.30300
H747        H  0.21766068  0.43702976  0.16926037     0.13900
H748        H  0.22623351  0.94568382  0.17411526     0.14400
C749        C  0.13802297  0.97404261  0.26973192    -0.15200
C750        C  0.12052241  0.98613171  0.29130028    -0.30300
H751        H  0.17398747  0.99118825  0.26660325     0.13900
H752        H  0.08447897  0.97141016  0.29277504     0.14400
C753        C  0.37728093  0.87402792  0.38705212    -0.15200
C754        C  0.38051971  0.83749755  0.39113817    -0.30300
H755        H  0.39503033  0.90268391  0.40113640     0.13900
H756        H  0.36662070  0.81079941  0.37532489     0.14400
C757        C  0.34169228  0.95636236  0.21961394    -0.15200
C758        C  0.36656713  0.00094427  0.21957407    -0.30300
H759        H  0.32494726  0.93914899  0.19990250     0.13900
H760        H  0.38361091  0.51081790  0.24067120     0.14400
C761        C  0.43936649  0.85368149  0.24524054    -0.15200
C762        C  0.43946401  0.88213237  0.26487428    -0.30300
H763        H  0.40803251  0.82567959  0.23784957     0.13900
H764        H  0.47102875  0.90761376  0.27392941     0.14400
C765        C  0.16985430  0.82794831  0.27388547    -0.15200
C766        C  0.15448641  0.81385227  0.24717255    -0.30300
H767        H  0.15392859  0.84165151  0.28732047     0.13900
H768        H  0.17013518  0.80013633  0.23351974     0.14400
C769        C  0.25570665  0.71930890  0.31185767    -0.15200
C770        C  0.22350324  0.69359154  0.33073769    -0.30300
H771        H  0.27423888  0.70623455  0.30066459     0.13900
H772        H  0.20548231  0.70732287  0.34185813     0.14400
C773        C  0.28395783  0.97440707  0.34452314    -0.15200
C774        C  0.25167041  0.96618656  0.36390941    -0.30300
H775        H  0.30000975  0.00602586  0.33310837     0.13900
H776        H  0.23501886  0.93463985  0.37536917     0.14400
C777        C  0.35916010  0.49378246  0.78956077    -0.15200
C778        C  0.35942107  0.53172652  0.78364375    -0.30300
H779        H  0.39933474  0.98838950  0.78324084     0.13900
H780        H  0.33928256  0.54123248  0.79651379     0.14400
C781        C  0.20382364  0.52197377  0.84663797    -0.15200
C782        C  0.24136026  0.52941333  0.86002728    -0.30300
H783        H  0.17660699  0.48810765  0.84335218     0.13900
H784        H  0.26701567  0.56340760  0.86498204     0.14400
C785        C  0.26242758  0.78511944  0.81663022    -0.15200
C786        C  0.28049617  0.80359313  0.84211448    -0.30300
H787        H  0.26067069  0.80537973  0.79941517     0.13900
H788        H  0.28469079  0.78372364  0.85856771     0.14400
C789        C  0.37036862  0.86726670  0.95953461    -0.15200
C790        C  0.34441749  0.88574729  0.96118155    -0.30300
H791        H  0.38331717  0.86412607  0.93886575     0.13900
H792        H  0.32835604  0.88512229  0.98146783     0.14400
C793        C  0.49543575  0.62646398  0.05434414    -0.15200
C794        C  0.45295417  0.61725533  0.05701015    -0.30300
H795        H  0.00644295  0.60595378  0.06552831     0.13900
H796        H  0.43782785  0.62622068  0.03971048     0.14400
C797        C  0.10915016  0.66167230  0.88689611    -0.15200
C798        C  0.12949441  0.63728940  0.88770819    -0.30300
H799        H  0.10744196  0.67649385  0.86666138     0.13900
H800        H  0.13508149  0.62601522  0.90829545     0.14400
C801        C  0.43500641  0.56806598  0.93388757    -0.15200
C802        C  0.42192584  0.56084960  0.90618328    -0.30300
H803        H  0.41511775  0.54364993  0.95026455     0.13900
H804        H  0.44344722  0.58313570  0.88937688     0.14400
C805        C  0.16835048  0.83705929  0.94084687    -0.15200
C806        C  0.17035627  0.84341538  0.91221318    -0.30300
H807        H  0.19655229  0.85911116  0.95435101     0.13900
H808        H  0.14423927  0.81888238  0.89838391     0.14400
C809        C  0.46512477  0.74466374  0.98227144    -0.15200
C810        C  0.47445274  0.78073890  0.99802409    -0.30300
H811        H  0.00463542  0.80691951  0.99682495     0.13900
H812        H  0.50897348  0.80569953  0.00248585     0.14400
C813        C  0.21819295  0.74210702  0.03037394    -0.15200
C814        C  0.19674546  0.71810134  0.00692676    -0.30300
H815        H  0.20005356  0.74925141  0.04663115     0.13900
H816        H  0.21449644  0.70912592  0.99145736     0.14400
O817        O  0.54310431  0.25932741  0.98621526    -0.84100
O818        O  0.53714713  0.19486571  0.02335732    -0.81100
C819        C  0.53562305  0.15971659  0.03188705     0.99400
O820        O  0.55875768  0.14579157  0.01937562    -0.81200
O821        O  0.50671383  0.11074730  0.97092219    -0.83800
C822        C  0.98694686  0.10234022  0.94797047     1.03900
O823        O  0.00450812  0.13491482  0.93073776    -0.76600
O824        O  0.50043108  0.20824310  0.95498978    -0.76800
C825        C  0.50645368  0.23803409  0.97280377     1.03900
O826        O  0.63378843  0.28440067  0.97396777    -0.84100
O827        O  0.63292218  0.22729198  0.01501395    -0.81100
C828        C  0.65488241  0.21257625  0.00165076     0.99400
O829        O  0.63658736  0.18379971  0.98222272    -0.81200
O830        O  0.58564414  0.14082460  0.93574993    -0.83800
C831        C  0.60200835  0.16885679  0.91538423     1.03900
O832        O  0.59859804  0.20325700  0.91533205    -0.76600
O833        O  0.59046207  0.27245551  0.93644875    -0.76700
C834        C  0.62691650  0.29614740  0.94973104     1.03800
Cr835      Cr  0.58550253  0.23836960  0.99780789     1.93700
Cr836      Cr  0.57176071  0.14885941  0.97672484     1.93200
Cr837      Cr  0.55074784  0.20592926  0.93661438     1.39100
O838        O  0.56963662  0.19790198  0.97022411    -1.21800
O839        O  0.74113758  0.46150519  0.85635063    -0.84100
O840        O  0.80866000  0.46953343  0.82184896    -0.81100
C841        C  0.84588457  0.47408386  0.81496029     0.99400
O842        O  0.86192316  0.45428918  0.82907190    -0.81200
O843        O  0.89141971  0.50887224  0.87698161    -0.83800
C844        C  0.89387629  0.01083291  0.90335088     1.03900
O845        O  0.86075459  0.99311051  0.92029712    -0.76600
O846        O  0.78915046  0.50761557  0.88791928    -0.76800
C847        C  0.76093830  0.49942242  0.86828002     1.03900
O848        O  0.72097698  0.37320262  0.87175505    -0.84100
O849        O  0.78240018  0.37648550  0.83309043    -0.81100
C850        C  0.79934230  0.35760827  0.84756671     0.99400
O851        O  0.82676527  0.37831507  0.86734738    -0.81200
O852        O  0.86395024  0.43221014  0.91319715    -0.83800
C853        C  0.83432373  0.41323690  0.93240755     1.03900
O854        O  0.79882322  0.41498787  0.93182141    -0.76600
O855        O  0.72773406  0.41745132  0.90764056    -0.76700
C856        C  0.70700584  0.37995498  0.89519167     1.03800
Cr857      Cr  0.76623476  0.42162102  0.84772448     1.93700
Cr858      Cr  0.85723545  0.44337478  0.87181198     1.93200
Cr859      Cr  0.79384459  0.46022799  0.90872377     1.39100
O860        O  0.80561738  0.44147580  0.87621761    -1.21800
O861        O  0.74340613  0.27967300  0.31901804    -0.84100
O862        O  0.80716502  0.33846913  0.35612902    -0.81100
C863        C  0.84263996  0.37227638  0.36437558     1.01800
O864        O  0.85724635  0.40933206  0.35170388    -0.81200
O865        O  0.89292603  0.39482133  0.30290720    -0.83800
C866        C  0.89418642  0.37830871  0.27908113     1.03900
O867        O  0.86118690  0.36243587  0.26201933    -0.76600
O868        O  0.79398055  0.28711004  0.28757071    -0.76800
C869        C  0.76409283  0.26368710  0.30559768     1.03900
O870        O  0.71919613  0.34564199  0.30626845    -0.84100
O871        O  0.77508325  0.40100621  0.34815474    -0.81100
C872        C  0.79110856  0.43856041  0.33578683     0.99400
O873        O  0.81850996  0.44866183  0.31547793    -0.81200
O874        O  0.86030738  0.44038078  0.26822304    -0.83800
C875        C  0.83010902  0.42849868  0.24930788     1.03900
O876        O  0.79695658  0.38976570  0.24923544    -0.76600
O877        O  0.72954006  0.31211720  0.26945526    -0.76700
C878        C  0.70735054  0.32707130  0.28201023     1.03800
Cr879      Cr  0.76412129  0.34287776  0.33055437     1.93700
Cr880      Cr  0.85356183  0.41935563  0.30922340     1.93200
Cr881      Cr  0.79622330  0.33980180  0.26957337     1.39100
O882        O  0.80481278  0.36721407  0.30313117    -1.21800
O883        O  0.52488391  0.28798788  0.17693146    -0.84100
O884        O  0.55263267  0.36523739  0.14743938    -0.81100
C885        C  0.52124630  0.37377788  0.15110051     0.99400
O886        O  0.51709440  0.38944733  0.17455311    -0.81200
O887        O  0.51286179  0.39852732  0.23274550    -0.83800
C888        C  0.97914233  0.35683877  0.24224423     1.03900
O889        O  0.98407079  0.32363537  0.24023702    -0.76600
O890        O  0.52254226  0.27517064  0.22332044    -0.76800
C891        C  0.50901580  0.26200618  0.19803532     1.03900
O892        O  0.61268956  0.32051882  0.20214651    -0.84100
O893        O  0.63991208  0.39996696  0.17487741    -0.81100
C894        C  0.64490810  0.43791563  0.17058233     0.99400
O895        O  0.61323737  0.44528641  0.17547633    -0.81200
O896        O  0.60836795  0.44579876  0.23475228    -0.83800
C897        C  0.60086386  0.43110386  0.26019540     1.03900
O898        O  0.57131700  0.39098259  0.26536782    -0.76600
O899        O  0.60654198  0.34238928  0.24553574    -0.76700
C900        C  0.62443624  0.32790817  0.22846118     1.03800
Cr901      Cr  0.58141242  0.34516056  0.17760964     1.93700
Cr902      Cr  0.56314227  0.41595997  0.20437895     1.93200
Cr903      Cr  0.54822400  0.33622001  0.24023696     1.39100
O904        O  0.56477248  0.36585330  0.20736120    -1.21800
O905        O  0.78830056  0.02642592  0.16368886    -0.84100
O906        O  0.86679512  0.05653659  0.19389701    -0.81100
C907        C  0.87198053  0.02307744  0.19296043     0.99400
O908        O  0.88235156  0.01191422  0.16962939    -0.81200
O909        O  0.88850064  0.49743962  0.13258958    -0.83800
C910        C  0.87128908  0.48231248  0.10834332     1.03900
O911        O  0.85956171  0.50393388  0.09208509    -0.76600
O912        O  0.77475638  0.02671286  0.11753202    -0.76800
C913        C  0.76422730  0.50198828  0.14064584     1.03900
O914        O  0.82283706  0.11279122  0.13744678    -0.84100
O915        O  0.90287438  0.13845919  0.16303970    -0.81100
C916        C  0.93967848  0.14091705  0.16820902     0.99400
O917        O  0.94456430  0.10738722  0.16488973    -0.81200
O918        O  0.94540781  0.09739970  0.10644780    -0.83800
C919        C  0.93108243  0.09199891  0.08095834     1.03900
O920        O  0.89007682  0.06591791  0.07544102    -0.76600
O921        O  0.84696636  0.10790816  0.09465747    -0.76700
C922        C  0.83365646  0.12672020  0.11187222     1.03800
Cr923      Cr  0.84646013  0.08181602  0.16225979     1.93700
Cr924      Cr  0.91209515  0.05523323  0.13783945     1.93200
Cr925      Cr  0.83550686  0.04721843  0.10015535     1.39100
O926        O  0.86484590  0.06164140  0.13330825    -1.21800
O927        O  0.79598774  0.27309363  0.01131582    -0.84100
O928        O  0.86974372  0.31143943  0.97618423    -0.81100
C929        C  0.87772955  0.35120607  0.97682714     0.99400
O930        O  0.89683612  0.37570978  0.99820728    -0.81200
O931        O  0.92033757  0.40143400  0.05377064    -0.83800
C932        C  0.88503468  0.39780044  0.06429441     1.03900
O933        O  0.85089941  0.36011468  0.06783857    -0.76600
O934        O  0.79013693  0.27184621  0.05857842    -0.76800
C935        C  0.77297043  0.26686354  0.03377161     1.03900
O936        O  0.82555224  0.21811983  0.03754833    -0.84100
O937        O  0.90296240  0.26073494  0.00645951    -0.81100
C938        C  0.94075302  0.29153550  0.99851175     0.99400
O939        O  0.94921633  0.33143564  0.99859459    -0.81200
O940        O  0.96192527  0.34783832  0.05641498    -0.83800
C941        C  0.95257284  0.34523835  0.08283333     1.03900
O942        O  0.91438425  0.33772785  0.09113475    -0.76600
O943        O  0.85581809  0.25038577  0.07869681    -0.76700
C944        C  0.83715109  0.21621506  0.06304988     1.03800
Cr945      Cr  0.85071163  0.26915395  0.00987763     1.93700
Cr946      Cr  0.92820364  0.36034816  0.02730416     1.93200
Cr947      Cr  0.85452613  0.30544023  0.07132134     1.39100
O948        O  0.87761064  0.31140061  0.03632488    -1.21800
O949        O  0.74875718  0.21672399  0.83475806    -0.84100
O950        O  0.70514298  0.13936710  0.86641036    -0.81100
C951        C  0.66507311  0.13097111  0.86638022     0.99400
O952        O  0.64085888  0.11524526  0.84431805    -0.81200
O953        O  0.61754691  0.10310691  0.78697393    -0.83800
C954        C  0.62388699  0.14092961  0.77973411     1.03900
O955        O  0.66250216  0.17440133  0.78007016    -0.76600
O956        O  0.75254654  0.22757471  0.78810885    -0.76800
C957        C  0.75605193  0.24205357  0.81345225     1.03900
O958        O  0.79969918  0.18343239  0.80498600    -0.84100
O959        O  0.75236564  0.10428581  0.83479461    -0.81100
C960        C  0.71940309  0.06660049  0.84085025     0.99400
O961        O  0.67998635  0.05937587  0.83813692    -0.81200
O962        O  0.66535328  0.05675824  0.77922019    -0.83800
C963        C  0.66655071  0.07048301  0.75382509     1.03900
O964        O  0.67734196  0.11061994  0.74929596    -0.76600
O965        O  0.76557641  0.15972697  0.76327595    -0.76700
C966        C  0.80004657  0.17392307  0.77863444     1.03800
Cr967      Cr  0.74827204  0.15931890  0.83304798     1.93700
Cr968      Cr  0.65502050  0.08747512  0.81194389     1.93200
Cr969      Cr  0.71399602  0.16592145  0.77286687     1.39100
O970        O  0.70619741  0.13746200  0.80594250    -1.21800
O971        O  0.96184088  0.20822712  0.69000337    -0.84100
O972        O  0.96866999  0.14847500  0.65512310    -0.81100
C973        C  0.97213927  0.11523864  0.64838649     0.99400
O974        O  0.94901035  0.07837823  0.66131678    -0.81200
O975        O  0.99763006  0.09485301  0.71130760    -0.83800
C976        C  0.52063396  0.11738257  0.73705890     1.03900
O977        O  0.50184412  0.13331548  0.75248694    -0.76600
O978        O  0.00506379  0.20213138  0.72186674    -0.76800
C979        C  0.99883210  0.22464593  0.70313006     1.03900
O980        O  0.87115053  0.14162947  0.70245520    -0.84100
O981        O  0.87330063  0.08494123  0.66251401    -0.81100
C982        C  0.85057874  0.04902025  0.67648959     0.99400
O983        O  0.86833024  0.03948295  0.69676276    -0.81200
O984        O  0.91747726  0.04970823  0.74487938    -0.83800
C985        C  0.89935478  0.06228005  0.76348420     1.03900
O986        O  0.90481933  0.10095009  0.76253142    -0.76600
O987        O  0.91479664  0.17739670  0.73899881    -0.76700
C988        C  0.87781639  0.16204413  0.72597339     1.03800
Cr989      Cr  0.91997470  0.14409290  0.67947405     1.93700
Cr990      Cr  0.93323680  0.06941458  0.70367065     1.93200
Cr991      Cr  0.95425856  0.15051039  0.74109298     1.39100
O992        O  0.93601666  0.12134882  0.70813322    -1.21800
O993        O  0.97739933  0.26201013  0.49552224    -0.84100
O994        O  0.94906594  0.31074353  0.52588752    -0.81100
C995        C  0.97967382  0.35127965  0.52304909     0.99400
O996        O  0.98358419  0.37237254  0.50021433    -0.81200
O997        O  0.48832294  0.38671582  0.44096877    -0.83800
C998        C  0.52054367  0.38063028  0.43517456     1.03900
O999        O  0.51557137  0.34236656  0.43644497    -0.76600
O1000       O  0.98267204  0.25568143  0.44894825    -0.76800
C1001       C  0.49269356  0.25034543  0.47245824     1.03900
O1002       O  0.89037775  0.20897207  0.46903318    -0.84100
O1003       O  0.86169858  0.25886053  0.49793007    -0.81100
C1004       C  0.85592127  0.29131904  0.50248733     0.99400
O1005       O  0.88747329  0.33067384  0.49809904    -0.81200
O1006       O  0.89430595  0.33772705  0.43906279    -0.83800
C1007       C  0.90327855  0.33239291  0.41358450     1.03900
O1008       O  0.93417829  0.32385401  0.40839178    -0.76600
O1009       O  0.89950154  0.23876196  0.42586036    -0.76700
C1010       C  0.88025503  0.20580953  0.44247613     1.03800
Cr1011     Cr  0.92090332  0.26326701  0.49485850     1.93700
Cr1012     Cr  0.93863277  0.35319565  0.46984170     1.93200
Cr1013     Cr  0.95705223  0.29160523  0.43294669     1.39100
O1014       O  0.93836303  0.30216310  0.46595797    -1.21800
O1015       O  0.76277506  0.03929972  0.35182513    -0.84100
O1016       O  0.69594888  0.03100761  0.31607010    -0.81100
C1017       C  0.65970917  0.02803876  0.30835934     0.99400
O1018       O  0.64424906  0.04927970  0.32157783    -0.81200
O1019       O  0.60768956  0.50358447  0.37337649    -0.83800
C1020       C  0.60645293  0.48579295  0.39718170     1.03900
O1021       O  0.63977374  0.50264085  0.41398882    -0.76600
O1022       O  0.71440366  0.99505028  0.38402831    -0.76800
C1023       C  0.73660726  0.50078924  0.36980151     1.03900
O1024       O  0.78365477  0.12843712  0.36486938    -0.84100
O1025       O  0.72502042  0.12493498  0.32431592    -0.81100
C1026       C  0.70885522  0.14569970  0.33742557     0.99400
O1027       O  0.68187393  0.12754198  0.35783905    -0.81200
O1028       O  0.64221975  0.07713766  0.40534154    -0.83800
C1029       C  0.67251161  0.09625832  0.42413481     1.03900
O1030       O  0.70655571  0.09208728  0.42367363    -0.76600
O1031       O  0.77572724  0.08551244  0.40178925    -0.76700
C1032       C  0.79665744  0.12259655  0.38893053     1.03800
Cr1033     Cr  0.73883215  0.07949721  0.34121379     1.93700
Cr1034     Cr  0.64875302  0.06302259  0.36413099     1.93200
Cr1035     Cr  0.70945058  0.04405558  0.40259840     1.39100
O1036       O  0.69885775  0.06185027  0.36932498    -1.21800
O1037       O  0.70914110  0.47020393  0.66055064    -0.84100
O1038       O  0.63721298  0.43532563  0.69705021    -0.81100
C1039       C  0.62850102  0.46664111  0.69793403     0.99400
O1040       O  0.60938507  0.47321346  0.67701119    -0.81200
O1041       O  0.58495315  0.47783313  0.62189924    -0.83800
C1042       C  0.62315676  0.01384426  0.61443943     1.03900
O1043       O  0.65541178  0.00766078  0.60976319    -0.76600
O1044       O  0.71355345  0.47632682  0.61331626    -0.76800
C1045       C  0.73154688  0.48772256  0.63800157     1.03900
O1046       O  0.67736415  0.38580564  0.63305122    -0.84100
O1047       O  0.60086776  0.35164161  0.66587751    -0.81100
C1048       C  0.56387893  0.34551758  0.67491147     0.99400
O1049       O  0.55607500  0.37730056  0.67529606    -0.81200
O1050       O  0.54151921  0.38228813  0.61805581    -0.83800
C1051       C  0.54966852  0.38913337  0.59152962     1.03900
O1052       O  0.58775887  0.41954945  0.58272097    -0.76600
O1053       O  0.64599940  0.38940873  0.59288886    -0.76700
C1054       C  0.66549271  0.37352114  0.60733362     1.03800
Cr1055     Cr  0.65391214  0.41196290  0.66213770     1.93700
Cr1056     Cr  0.57693625  0.42775956  0.64728274     1.93200
Cr1057     Cr  0.64850724  0.44620505  0.60158221     1.39100
O1058       O  0.62667850  0.42867183  0.63687158    -1.21800
O1059       O  0.71749829  0.25399938  0.51903843    -0.84100
O1060       O  0.65907415  0.18425343  0.48470057    -0.81100
C1061       C  0.62611267  0.14705869  0.47787379     0.99400
O1062       O  0.58956351  0.13172620  0.49145250    -0.81200
O1063       O  0.61155953  0.10385159  0.54163086    -0.83800
C1064       C  0.62879399  0.10593647  0.56596085     1.03900
O1065       O  0.64181498  0.14005570  0.58176636    -0.76600
O1066       O  0.71402141  0.20814326  0.55275005    -0.76800
C1067       C  0.73551961  0.23582433  0.53302761     1.03900
O1068       O  0.64675914  0.27318925  0.53068541    -0.84100
O1069       O  0.59179426  0.21083944  0.49204661    -0.81100
C1070       C  0.55570110  0.19617829  0.50622167     0.99400
O1071       O  0.54727742  0.16921548  0.52663921    -0.81200
O1072       O  0.56077897  0.13280608  0.57512394    -0.83800
C1073       C  0.57069419  0.16374296  0.59317184     1.03900
O1074       O  0.60774413  0.19939711  0.59162949    -0.76600
O1075       O  0.68271168  0.26917868  0.56835260    -0.76700
C1076       C  0.66509080  0.28804955  0.55469100     1.03800
Cr1077     Cr  0.65234871  0.22774336  0.50865912     1.93700
Cr1078     Cr  0.58098668  0.13816035  0.53380940     1.93200
Cr1079     Cr  0.65977046  0.20327579  0.57114899     1.39100
O1080       O  0.63117721  0.18967412  0.53788422    -1.21800
C1081       C  0.62501329  0.05510106  0.60445245    -0.15200
C1082       C  0.63192572  0.06741515  0.57653885    -0.30300
H1083       H  0.61585303  0.07303753  0.61960091     0.13900
H1084       H  0.63606581  0.04651880  0.56085499     0.14400
C1085       C  0.67421263  0.33967492  0.59441424    -0.15200
C1086       C  0.66441863  0.32704730  0.56672292    -0.30300
H1087       H  0.68678406  0.32328331  0.60831790     0.13900
H1088       H  0.65135510  0.34321732  0.55301830     0.14400
C1089       C  0.62954475  0.12115073  0.45377186    -0.15200
C1090       C  0.66845433  0.12348981  0.44710401    -0.30300
H1091       H  0.59909378  0.09745220  0.44271955     0.13900
H1092       H  0.69814742  0.14497798  0.45964164     0.14400
C1093       C  0.51510343  0.37623133  0.54377173    -0.15200
C1094       C  0.51371260  0.36198591  0.57076236    -0.30300
H1095       H  0.54276663  0.40856604  0.53742681     0.13900
H1096       H  0.48527793  0.33081228  0.57796017     0.14400
C1097       C  0.56446848  0.44679493  0.40619827    -0.15200
C1098       C  0.56332608  0.41791203  0.42568042    -0.30300
H1099       H  0.53361110  0.44149874  0.39647134     0.13900
H1100       H  0.59404409  0.42056374  0.43368665     0.14400
C1101       C  0.84515310  0.16328206  0.43028760    -0.15200
C1102       C  0.83625184  0.16011724  0.40184754    -0.30300
H1103       H  0.82492152  0.13568227  0.44469588     0.13900
H1104       H  0.85611860  0.18828358  0.38772792     0.14400
C1105       C  0.52467302  0.23423515  0.47650897    -0.15200
C1106       C  0.52321961  0.21100879  0.50005632    -0.30300
H1107       H  0.54871948  0.24030182  0.45952804     0.13900
H1108       H  0.49717357  0.20288607  0.51599059     0.14400
C1109       C  0.81170053  0.28364541  0.51235208    -0.15200
C1110       C  0.78159031  0.24598822  0.52591988    -0.30300
H1111       H  0.80358703  0.30952066  0.50811279     0.13900
H1112       H  0.79083420  0.22143189  0.53181601     0.14400
C1113       C  0.50535292  0.11882793  0.62499662    -0.15200
C1114       C  0.53949092  0.15856313  0.61656450    -0.30300
H1115       H  0.99693825  0.08946489  0.61372936     0.13900
H1116       H  0.54597416  0.18853714  0.62801910     0.14400
C1117       C  0.53767819  0.27067610  0.69531464    -0.15200
C1118       C  0.52869402  0.30122273  0.68469357    -0.30300
H1119       H  0.06925972  0.27864376  0.69973368     0.13900
H1120       H  0.49425665  0.29374045  0.68345611     0.14400
C1121       C  0.80270327  0.01771441  0.67050108    -0.15200
C1122       C  0.78003964  0.01924963  0.64737616    -0.30300
H1123       H  0.78494916  0.99182388  0.68652313     0.13900
H1124       H  0.79681672  0.54512882  0.62366801     0.14400
C1125       C  0.65281061  0.04015718  0.72877204    -0.15200
C1126       C  0.64312054  0.99759209  0.73007256    -0.30300
H1127       H  0.65059000  0.05377791  0.70815144     0.13900
H1128       H  0.64756599  0.48389982  0.74373922     0.14400
C1129       C  0.58645245  0.14488841  0.76865188    -0.15200
C1130       C  0.56044891  0.11728306  0.74778549    -0.30300
H1131       H  0.58131436  0.17137792  0.77662837     0.13900
H1132       H  0.56845059  0.09339652  0.73845994     0.14400
C1133       C  0.84103920  0.17853336  0.76574758    -0.15200
C1134       C  0.84147806  0.16698483  0.73814804    -0.30300
H1135       H  0.86982393  0.18815880  0.77952963     0.13900
H1136       H  0.81218445  0.15643170  0.72467781     0.14400
C1137       C  0.86702884  0.44027353  0.09839423    -0.15200
C1138       C  0.88470951  0.43820505  0.07314408    -0.30300
H1139       H  0.85341212  0.41208948  0.11309375     0.13900
H1140       H  0.90296751  0.46805234  0.06008066     0.14400
C1141       C  0.83162533  0.16585717  0.10214410    -0.15200
C1142       C  0.83013324  0.17356138  0.07393917    -0.30300
H1143       H  0.83349679  0.18957487  0.11815655     0.13900
H1144       H  0.82563607  0.14849097  0.05816049     0.14400
C1145       C  0.98300498  0.36120735  0.13178811    -0.15200
C1146       C  0.98715828  0.35248438  0.10419709    -0.30300
H1147       H  0.95414242  0.36365108  0.13830424     0.13900
H1148       H  0.01674075  0.35186800  0.09707462     0.14400
C1149       C  0.97715254  0.18354756  0.17813036    -0.15200
C1150       C  0.96975498  0.21081589  0.19471726    -0.30300
H1151       H  0.01078058  0.19341871  0.17098855     0.13900
H1152       H  0.44081479  0.20552634  0.20299032     0.14400
C1153       C  0.71818213  0.46629479  0.14697097    -0.15200
C1154       C  0.68845373  0.47435956  0.16037163    -0.30300
H1155       H  0.68907548  0.97852587  0.13173357     0.13900
H1156       H  0.69672775  0.50842834  0.16463210     0.14400
C1157       C  0.62619695  0.46064521  0.28434931    -0.15200
C1158       C  0.63333450  0.50232147  0.28674221    -0.30300
H1159       H  0.63697030  0.44691882  0.30151908     0.13900
H1160       H  0.61850719  0.51458898  0.27129684     0.14400
C1161       C  0.86706118  0.36855147  0.38904065    -0.15200
C1162       C  0.87827589  0.33677909  0.38949471    -0.30300
H1163       H  0.87845549  0.39355698  0.40594140     0.13900
H1164       H  0.87084482  0.31489151  0.37102306     0.14400
C1165       C  0.83330595  0.45941058  0.22671714    -0.15200
C1166       C  0.87205571  0.49566551  0.21974883    -0.30300
H1167       H  0.80322865  0.45100735  0.21458491     0.13900
H1168       H  0.88008024  0.01625168  0.23965381     0.14400
C1169       C  0.93657895  0.35116000  0.25228811    -0.15200
C1170       C  0.93593114  0.38084695  0.27029047    -0.30300
H1171       H  0.90568029  0.32193942  0.24554293     0.13900
H1172       H  0.96702942  0.40777734  0.27892453     0.14400
C1173       C  0.66756771  0.32396944  0.26871053    -0.15200
C1174       C  0.65961698  0.32007655  0.24008615    -0.30300
H1175       H  0.64662786  0.33046005  0.28303696     0.13900
H1176       H  0.68057695  0.31422396  0.22539459     0.14400
C1177       C  0.75250658  0.21703590  0.31066098    -0.15200
C1178       C  0.72012368  0.19118376  0.32936812    -0.30300
H1179       H  0.77135435  0.20424012  0.29954700     0.13900
H1180       H  0.70193259  0.20465457  0.34057614     0.14400
C1181       C  0.77949163  0.47226204  0.34464598    -0.15200
C1182       C  0.74780148  0.46553644  0.36403514    -0.30300
H1183       H  0.79730963  0.50413211  0.33358695     0.13900
H1184       H  0.72931454  0.43376861  0.37509911     0.14400
C1185       C  0.87257533  0.99472209  0.79357830    -0.15200
C1186       C  0.87186269  0.03199745  0.78682569    -0.30300
H1187       H  0.89574714  0.49651005  0.77995274     0.13900
H1188       H  0.85145423  0.04143102  0.79945778     0.14400
C1189       C  0.72563450  0.02953759  0.85071675    -0.15200
C1190       C  0.76145414  0.03540513  0.86571635    -0.30300
H1191       H  0.69887087  0.99591599  0.84608169     0.13900
H1192       H  0.78693581  0.06874675  0.87211073     0.14400
C1193       C  0.76867434  0.28918692  0.81764641    -0.15200
C1194       C  0.78734067  0.31096618  0.84218900    -0.30300
H1195       H  0.76355141  0.30659283  0.79993954     0.13900
H1196       H  0.79492074  0.29411721  0.85908828     0.14400
C1197       C  0.86571737  0.36959518  0.95230000    -0.15200
C1198       C  0.84278487  0.39089607  0.95636235    -0.30300
H1199       H  0.87497580  0.36499756  0.93072129     0.13900
H1200       H  0.83000368  0.39176226  0.97762406     0.14400
C1201       C  0.00497187  0.12703763  0.05676652    -0.15200
C1202       C  0.96194979  0.11668483  0.05710626    -0.30300
H1203       H  0.52193698  0.12656399  0.07453330     0.13900
H1204       H  0.94851424  0.12556194  0.03875805     0.14400
C1205       C  0.62236112  0.16003021  0.89029373    -0.15200
C1206       C  0.64627787  0.13950465  0.89242515    -0.30300
H1207       H  0.61870541  0.17204696  0.86941419     0.13900
H1208       H  0.65401255  0.13127641  0.91342169     0.14400
C1209       C  0.94541805  0.06196821  0.93976190    -0.15200
C1210       C  0.93447379  0.05179769  0.91190436    -0.30300
H1211       H  0.92473264  0.03919561  0.95664843     0.13900
H1212       H  0.95706184  0.07275726  0.89501295     0.14400
C1213       C  0.66216939  0.33781706  0.93684446    -0.15200
C1214       C  0.66640626  0.34325094  0.90814971    -0.30300
H1215       H  0.68821178  0.36197691  0.95088793     0.13900
H1216       H  0.64268675  0.31706570  0.89401604     0.14400
C1217       C  0.96716264  0.24087194  0.98189341    -0.15200
C1218       C  0.97600205  0.28178797  0.98972388    -0.30300
H1219       H  0.43596333  0.22064700  0.97556150     0.13900
H1220       H  0.01039630  0.30906327  0.99006899     0.14400
C1221       C  0.72489346  0.25195552  0.03087159    -0.15200
C1222       C  0.70243907  0.22874924  0.00748402    -0.30300
H1223       H  0.70767013  0.25824876  0.04819995     0.13900
H1224       H  0.71990734  0.22039154  0.99138880     0.14400
O1225       O  0.53814099  0.75573913  0.98593375    -0.84100
O1226       O  0.52560762  0.68659818  0.02113656    -0.81100
C1227       C  0.52284797  0.65057009  0.02902034     0.99400
O1228       O  0.54471349  0.63564652  0.01587885    -0.81200
O1229       O  0.49536282  0.60479845  0.96607975    -0.83800
C1230       C  0.98009581  0.61667974  0.94746633     1.03900
O1231       O  0.99780428  0.65146098  0.93212829    -0.76600
O1232       O  0.49343027  0.70691796  0.95455270    -0.76800
C1233       C  0.50061620  0.73540582  0.97368985     1.03900
O1234       O  0.62713574  0.77606190  0.97465960    -0.84100
O1235       O  0.61929427  0.71460787  0.01504078    -0.81100
C1236       C  0.64182666  0.70076917  0.00174050     0.99400
O1237       O  0.62508356  0.67448374  0.98080149    -0.81200
O1238       O  0.57578211  0.63559710  0.93232308    -0.83800
C1239       C  0.59190393  0.66403433  0.91214400     1.03900
O1240       O  0.58893616  0.69873798  0.91284996    -0.76600
O1241       O  0.58565601  0.76914984  0.93692837    -0.76700
C1242       C  0.62218290  0.79015280  0.95068578     1.03800
Cr1243     Cr  0.57626179  0.73027189  0.99712875     1.93700
Cr1244     Cr  0.56027695  0.64130238  0.97345478     1.93200
Cr1245     Cr  0.54260610  0.70305795  0.93521288     1.39100
O1246       O  0.56000317  0.69157884  0.96834837    -1.21800
O1247       O  0.74516659  0.96027689  0.86107619    -0.84100
O1248       O  0.81073772  0.96523900  0.82561169    -0.81100
C1249       C  0.84603754  0.96616162  0.81783005     0.99400
O1250       O  0.85880376  0.94239832  0.83066767    -0.81200
O1251       O  0.89302358  0.99314014  0.87949802    -0.83800
C1252       C  0.89039067  0.52593641  0.90074835     1.03900
O1253       O  0.85717093  0.50604287  0.91742296    -0.76600
O1254       O  0.79526818  0.00218295  0.89293613    -0.76800
C1255       C  0.76748596  0.99736638  0.87372125     1.03900
O1256       O  0.71814621  0.86924234  0.87344831    -0.84100
O1257       O  0.77681643  0.87021641  0.83330685    -0.81100
C1258       C  0.79032294  0.84738588  0.84670123     0.99400
O1259       O  0.81749781  0.86414758  0.86713649    -0.81200
O1260       O  0.85964825  0.91382907  0.91414955    -0.83800
C1261       C  0.83088817  0.89792006  0.93415103     1.03900
O1262       O  0.79728993  0.90295817  0.93392874    -0.76600
O1263       O  0.72910841  0.91172517  0.91128650    -0.76700
C1264       C  0.70588402  0.87545323  0.89773204     1.03800
Cr1265     Cr  0.76566791  0.91735204  0.85035709     1.93700
Cr1266     Cr  0.85362293  0.92863153  0.87316721     1.93200
Cr1267     Cr  0.79601893  0.95119807  0.91203311     1.39100
O1268       O  0.80495007  0.93213326  0.87871450    -1.21800
O1269       O  0.75249957  0.78470812  0.32220227    -0.84100
O1270       O  0.82095457  0.84441074  0.35647718    -0.81100
C1271       C  0.85803763  0.87760776  0.36322881     1.01800
O1272       O  0.87330389  0.91365088  0.34911109    -0.81200
O1273       O  0.90097117  0.89250900  0.29890904    -0.83800
C1274       C  0.89899578  0.87407603  0.27514070     1.03900
O1275       O  0.86490357  0.85989769  0.25921475    -0.76600
O1276       O  0.79891375  0.78805492  0.28887271    -0.76800
C1277       C  0.77041661  0.76655873  0.30805980     1.03900
O1278       O  0.73004550  0.85195322  0.30994236    -0.84100
O1279       O  0.79127051  0.90875971  0.34850925    -0.81100
C1280       C  0.80622694  0.94515262  0.33488617     0.99400
O1281       O  0.83315369  0.95400360  0.31430661    -0.81200
O1282       O  0.86820131  0.94033724  0.26508282    -0.83800
C1283       C  0.83798393  0.92691004  0.24593416     1.03900
O1284       O  0.80317087  0.88939057  0.24795297    -0.76600
O1285       O  0.73495514  0.81508847  0.27302220    -0.76700
C1286       C  0.71458507  0.83114898  0.28673253     1.03800
Cr1287     Cr  0.77663621  0.84903339  0.33218695     1.93700
Cr1288     Cr  0.86517748  0.92139197  0.30664300     1.93200
Cr1289     Cr  0.80143632  0.84026041  0.26994107     1.39100
O1290       O  0.81443339  0.87035067  0.30283985    -1.21800
O1291       O  0.52800514  0.77980743  0.18023336    -0.84100
O1292       O  0.56730634  0.85729858  0.14904456    -0.81100
C1293       C  0.53481819  0.86433449  0.14795645     0.99400
O1294       O  0.52493668  0.87949605  0.16970577    -0.81200
O1295       O  0.51339007  0.89453548  0.22693245    -0.83800
C1296       C  0.98957224  0.87349344  0.22894049     1.03900
O1297       O  0.99163852  0.83905881  0.23421019    -0.76600
O1298       O  0.51911011  0.76863005  0.22708857    -0.76800
C1299       C  0.50861640  0.75487410  0.20147047     1.03900
O1300       O  0.60883700  0.80661593  0.21125776    -0.84100
O1301       O  0.64570197  0.88759264  0.18545954    -0.81100
C1302       C  0.65311288  0.92548738  0.17826510     0.99400
O1303       O  0.62129967  0.93348862  0.17631373    -0.81200
O1304       O  0.60777507  0.93938474  0.23438171    -0.83800
C1305       C  0.59857123  0.92611517  0.26011881     1.03900
O1306       O  0.56831234  0.88665176  0.26598286    -0.76600
O1307       O  0.60299676  0.83456724  0.25218709    -0.76700
C1308       C  0.62103165  0.81792543  0.23700883     1.03800
Cr1309     Cr  0.58602686  0.83470411  0.18335540     1.93700
Cr1310     Cr  0.56668079  0.90795714  0.20216370     1.93200
Cr1311     Cr  0.54560224  0.83036035  0.24299231     1.39100
O1312       O  0.56594042  0.85751755  0.20959714    -1.21800
O1313       O  0.78156886  0.53756575  0.15526608    -0.84100
O1314       O  0.84061879  0.52693411  0.18901492    -0.81100
C1315       C  0.87444601  0.52442127  0.19589366     0.99400
O1316       O  0.91084980  0.54675145  0.18246713    -0.81200
O1317       O  0.89101306  0.00309819  0.11104370    -0.83800
C1318       C  0.85224370  0.97532209  0.10210582     1.03900
O1319       O  0.82156568  0.98465440  0.10256385    -0.76600
O1320       O  0.78627473  0.49654435  0.12100885    -0.76800
C1321       C  0.76118104  0.01362407  0.14295197     1.03900
O1322       O  0.84983518  0.62790353  0.14503666    -0.84100
O1323       O  0.90583001  0.62095133  0.18314326    -0.81100
C1324       C  0.94220307  0.64296081  0.16942282     0.99400
O1325       O  0.95095651  0.62614291  0.14818443    -0.81200
O1326       O  0.93857883  0.57814190  0.09915808    -0.83800
C1327       C  0.92917791  0.60068934  0.08208919     1.03900
O1328       O  0.89137891  0.59767612  0.08335120    -0.76600
O1329       O  0.81431894  0.58802115  0.10709135    -0.76700
C1330       C  0.82945543  0.62347353  0.12176651     1.03800
Cr1331     Cr  0.84599167  0.57714440  0.16609596     1.93700
Cr1332     Cr  0.91859971  0.56202463  0.14037739     1.93200
Cr1333     Cr  0.83975319  0.54746425  0.10320221     1.39100
O1334       O  0.86802410  0.56222969  0.13653081    -1.21800
O1335       O  0.78048382  0.76271043  0.01728729    -0.84100
O1336       O  0.85469927  0.79234674  0.98382923    -0.81100
C1337       C  0.86765634  0.83350075  0.98282707     0.99400
O1338       O  0.88765628  0.85843556  0.00391396    -0.81200
O1339       O  0.90644211  0.88557989  0.05993999    -0.83800
C1340       C  0.87193644  0.88578236  0.06875596     1.03900
O1341       O  0.83500649  0.84995884  0.07062621    -0.76600
O1342       O  0.77071131  0.76066976  0.06401692    -0.76800
C1343       C  0.75557659  0.75590589  0.03865832     1.03900
O1344       O  0.80122180  0.70346060  0.04806580    -0.84100
O1345       O  0.87845768  0.73741794  0.01747549    -0.81100
C1346       C  0.91701162  0.76456071  0.00867273     0.99400
O1347       O  0.93169439  0.80618628  0.01006466    -0.81200
O1348       O  0.94153841  0.82747149  0.06871411    -0.83800
C1349       C  0.93062609  0.83036730  0.09430591     1.03900
O1350       O  0.89253599  0.82549444  0.09975477    -0.76600
O1351       O  0.83318602  0.73826818  0.08824513    -0.76700
C1352       C  0.81386598  0.70303479  0.07357851     1.03800
Cr1353     Cr  0.83092550  0.75237981  0.01869341     1.93700
Cr1354     Cr  0.91295593  0.84089816  0.03606807     1.93200
Cr1355     Cr  0.83449947  0.79363619  0.07804461     1.39100
O1356       O  0.85951482  0.79544860  0.04435098    -1.21800
O1357       O  0.73275665  0.70886574  0.82897812    -0.84100
O1358       O  0.69062495  0.63151134  0.86008607    -0.81100
C1359       C  0.65061036  0.62338525  0.86037429     0.99400
O1360       O  0.62642988  0.60828543  0.83823840    -0.81200
O1361       O  0.60366958  0.59694936  0.78082106    -0.83800
C1362       C  0.60985047  0.63501285  0.77439657     1.03900
O1363       O  0.64852676  0.66838996  0.77427270    -0.76600
O1364       O  0.73842870  0.72180375  0.78253132    -0.76800
C1365       C  0.74151548  0.73522677  0.80815638     1.03900
O1366       O  0.78563817  0.67859805  0.79860628    -0.84100
O1367       O  0.73895331  0.59874589  0.82721154    -0.81100
C1368       C  0.70656310  0.56105401  0.83372081     0.99400
O1369       O  0.66682988  0.55315288  0.83141188    -0.81200
O1370       O  0.65258218  0.55148874  0.77278671    -0.83800
C1371       C  0.65437653  0.56536301  0.74739518     1.03900
O1372       O  0.66375763  0.60511616  0.74285097    -0.76600
O1373       O  0.75247811  0.65490805  0.75665213    -0.76700
C1374       C  0.78689314  0.66978723  0.77218973     1.03800
Cr1375     Cr  0.73387547  0.65284969  0.82658319     1.93700
Cr1376     Cr  0.64125421  0.58119692  0.80553298     1.93200
Cr1377     Cr  0.70018364  0.66033254  0.76662920     1.39100
O1378       O  0.69216742  0.63133484  0.79951869    -1.21800
O1379       O  0.95827479  0.71437781  0.68491095    -0.84100
O1380       O  0.96723870  0.65428073  0.65124588    -0.81100
C1381       C  0.97039979  0.62067469  0.64492779     0.99400
O1382       O  0.94656627  0.58412988  0.65794538    -0.81200
O1383       O  0.99443374  0.60320493  0.70820964    -0.83800
C1384       C  0.50507477  0.61317392  0.73457626     1.03900
O1385       O  0.48674099  0.62925692  0.75034174    -0.76600
O1386       O  0.99916687  0.70885117  0.71881116    -0.76800
C1387       C  0.99448783  0.73090240  0.69898773     1.03900
O1388       O  0.86660716  0.64689873  0.69610497    -0.84100
O1389       O  0.87142825  0.58999635  0.65753798    -0.81100
C1390       C  0.84891187  0.55391855  0.67147162     0.99400
O1391       O  0.86596594  0.54528511  0.69256627    -0.81200
O1392       O  0.91424579  0.55676617  0.74131544    -0.83800
C1393       C  0.89433992  0.56820392  0.75927158     1.03900
O1394       O  0.89808607  0.60612097  0.75778804    -0.76600
O1395       O  0.90719138  0.68189845  0.73390498    -0.76700
C1396       C  0.87080634  0.66572489  0.72003749     1.03800
Cr1397     Cr  0.91705976  0.64984108  0.67444926     1.93700
Cr1398     Cr  0.93035898  0.57615600  0.70012589     1.93200
Cr1399     Cr  0.94794389  0.65650034  0.73711035     1.39100
O1400       O  0.93192268  0.62759015  0.70395840    -1.21800
O1401       O  0.95719942  0.73246459  0.48782463    -0.84100
O1402       O  0.96219344  0.79274635  0.52772196    -0.81100
C1403       C  0.97033354  0.83064331  0.53588091     0.99400
O1404       O  0.95505613  0.85174948  0.52222528    -0.81200
O1405       O  0.49230125  0.88978355  0.44444774    -0.83800
C1406       C  0.52412315  0.88313720  0.43835086     1.03900
O1407       O  0.51869453  0.84466843  0.43956191    -0.76600
O1408       O  0.00211552  0.78287278  0.45664100    -0.76800
C1409       C  0.49552428  0.75370767  0.47656229     1.03900
O1410       O  0.86727965  0.71253235  0.47416105    -0.84100
O1411       O  0.87032898  0.76801607  0.51718800    -0.81100
C1412       C  0.85290382  0.78931537  0.50652949     0.99400
O1413       O  0.87373791  0.81947408  0.48815429    -0.81200
O1414       O  0.92284875  0.85767559  0.43939314    -0.83800
C1415       C  0.90299198  0.82858363  0.41985974     1.03900
O1416       O  0.90525658  0.79351189  0.41946907    -0.76600
O1417       O  0.91214357  0.72257533  0.43810378    -0.76700
C1418       C  0.87443649  0.70052142  0.45013618     1.03800
Cr1419     Cr  0.91580307  0.75479231  0.49964947     1.93700
Cr1420     Cr  0.93850652  0.84904060  0.48026329     1.93200
Cr1421     Cr  0.95318010  0.78867952  0.43903196     1.39100
O1422       O  0.93592232  0.79761819  0.47318399    -1.21800
O1423       O  0.75752370  0.53767882  0.35664604    -0.84100
O1424       O  0.69337577  0.53234388  0.31985204    -0.81100
C1425       C  0.65786432  0.53054074  0.31162461     0.99400
O1426       O  0.64349869  0.55319584  0.32435000    -0.81200
O1427       O  0.61118852  0.99863837  0.37076369    -0.83800
C1428       C  0.61096657  0.98175055  0.39477879     1.03900
O1429       O  0.64501922  0.99958588  0.41100207    -0.76600
O1430       O  0.70688314  0.49435422  0.38799493    -0.76800
C1431       C  0.74447588  0.00292639  0.36568668     1.03900
O1432       O  0.78295581  0.62824764  0.36930971    -0.84100
O1433       O  0.72607332  0.62717280  0.32786675    -0.81100
C1434       C  0.71088422  0.64912884  0.34055964     0.99400
O1435       O  0.68311451  0.63185094  0.36065295    -0.81200
O1436       O  0.64105265  0.58234569  0.40803629    -0.83800
C1437       C  0.67092900  0.59998771  0.42726796     1.03900
O1438       O  0.70397810  0.59419250  0.42713820    -0.76600
O1439       O  0.77146372  0.58397533  0.40609650    -0.76700
C1440       C  0.79459404  0.62108198  0.39350975     1.03800
Cr1441     Cr  0.73692780  0.58013181  0.34530477     1.93700
Cr1442     Cr  0.64759348  0.56750017  0.36691740     1.93200
Cr1443     Cr  0.70476526  0.54497298  0.40630366     1.39100
O1444       O  0.69628616  0.56398714  0.37287491    -1.21800
O1445       O  0.70850869  0.96995230  0.66707619    -0.84100
O1446       O  0.63511214  0.93609725  0.70288261    -0.81100
C1447       C  0.62943855  0.96930602  0.70394317     0.99400
O1448       O  0.61189615  0.97792424  0.68293759    -0.81200
O1449       O  0.58849667  0.98462368  0.62722694    -0.83800
C1450       C  0.62016254  0.50943747  0.61117506     1.03900
O1451       O  0.65345436  0.50507330  0.60618701    -0.76600
O1452       O  0.71344473  0.97673741  0.61976334    -0.76800
C1453       C  0.73134780  0.98719077  0.64457635     1.03900
O1454       O  0.67496503  0.88586046  0.63958077    -0.84100
O1455       O  0.59691410  0.85349268  0.67073840    -0.81100
C1456       C  0.56014189  0.84863821  0.67923625     0.99400
O1457       O  0.55430016  0.88174007  0.68015962    -0.81200
O1458       O  0.54077184  0.88893677  0.62302578    -0.83800
C1459       C  0.54958295  0.89388590  0.59645949     1.03900
O1460       O  0.58856636  0.92205113  0.58759056    -0.76600
O1461       O  0.64462751  0.88994082  0.59922363    -0.76700
C1462       C  0.66343322  0.87360399  0.61388866     1.03800
Cr1463     Cr  0.65165238  0.91281495  0.66799125     1.93700
Cr1464     Cr  0.57785430  0.93334809  0.65262113     1.93200
Cr1465     Cr  0.64878795  0.94777824  0.60704949     1.39100
O1466       O  0.62636771  0.93156879  0.64238725    -1.21800
O1467       O  0.71713900  0.75447685  0.52554213    -0.84100
O1468       O  0.65925073  0.68630073  0.49015221    -0.81100
C1469       C  0.62580834  0.65004355  0.48242946     0.99400
O1470       O  0.58905031  0.63511403  0.49564088    -0.81200
O1471       O  0.61098618  0.60588144  0.54475618    -0.83800
C1472       C  0.62820676  0.60694353  0.56885271     1.03900
O1473       O  0.63937864  0.63932064  0.58601484    -0.76600
O1474       O  0.71287748  0.70883626  0.55968064    -0.76800
C1475       C  0.73486640  0.73658699  0.54015155     1.03900
O1476       O  0.64727376  0.77489225  0.53682160    -0.84100
O1477       O  0.59268850  0.71366241  0.49759377    -0.81100
C1478       C  0.55626951  0.69888620  0.51141114     0.99400
O1479       O  0.54706578  0.67152931  0.53166574    -0.81200
O1480       O  0.55913967  0.63266999  0.57930985    -0.83800
C1481       C  0.56778507  0.66340770  0.59725603     1.03900
O1482       O  0.60504837  0.69880321  0.59665887    -0.76600
O1483       O  0.68083712  0.76911620  0.57525837    -0.76700
C1484       C  0.66435564  0.78877843  0.56125755     1.03800
Cr1485     Cr  0.65267407  0.72957597  0.51449976     1.93700
Cr1486     Cr  0.58019260  0.63991440  0.53811612     1.93200
Cr1487     Cr  0.65773759  0.70313444  0.57695987     1.39100
O1488       O  0.63045271  0.69094425  0.54321204    -1.21800
C1489       C  0.62127418  0.55110730  0.60383138    -0.15200
C1490       C  0.63320720  0.56895336  0.57743870    -0.30300
H1491       H  0.60729069  0.56451470  0.61913842     0.13900
H1492       H  0.64209051  0.55239274  0.56104089     0.14400
C1493       C  0.67183526  0.83938985  0.60125520    -0.15200
C1494       C  0.66351344  0.82764533  0.57335352    -0.30300
H1495       H  0.68327077  0.82228608  0.61543636     0.13900
H1496       H  0.65167540  0.84462268  0.55936755     0.14400
C1497       C  0.62881133  0.62478738  0.45776800    -0.15200
C1498       C  0.66752589  0.62721724  0.45049098    -0.30300
H1499       H  0.59815360  0.60134361  0.44680121     0.13900
H1500       H  0.69744864  0.64831350  0.46294301     0.14400
C1501       C  0.51621442  0.87948333  0.54799061    -0.15200
C1502       C  0.51350753  0.86669411  0.57556191    -0.30300
H1503       H  0.54483260  0.91098415  0.54136019     0.13900
H1504       H  0.48408095  0.83658899  0.58305800     0.14400
C1505       C  0.56914623  0.94293341  0.40472870    -0.15200
C1506       C  0.56706175  0.91997349  0.42842611    -0.30300
H1507       H  0.53882011  0.93349943  0.39258518     0.13900
H1508       H  0.59725534  0.92689074  0.43983032     0.14400
C1509       C  0.83831947  0.66060611  0.43615395    -0.15200
C1510       C  0.83516527  0.65662982  0.40731530    -0.30300
H1511       H  0.81112130  0.63654021  0.44960177     0.13900
H1512       H  0.86024173  0.68284644  0.39377129     0.14400
C1513       C  0.52695931  0.73733155  0.48112121    -0.15200
C1514       C  0.52431014  0.71391748  0.50477772    -0.30300
H1515       H  0.55146089  0.74325046  0.46448720     0.13900
H1516       H  0.49775527  0.70583630  0.52031331     0.14400
C1517       C  0.80751234  0.77940913  0.51498949    -0.15200
C1518       C  0.78169116  0.74810787  0.53440404    -0.30300
H1519       H  0.79432214  0.79791182  0.50394043     0.13900
H1520       H  0.79467580  0.72966834  0.54574325     0.14400
C1521       C  0.49730525  0.61972840  0.62479550    -0.15200
C1522       C  0.53477485  0.65854418  0.61922004    -0.30300
H1523       H  0.99494833  0.59299136  0.61135511     0.13900
H1524       H  0.54203503  0.68799338  0.63162616     0.14400
C1525       C  0.52975063  0.77147371  0.69688065    -0.15200
C1526       C  0.52303495  0.80426330  0.68761836    -0.30300
H1527       H  0.06557513  0.78350454  0.69776798     0.13900
H1528       H  0.48918397  0.79842033  0.68612203     0.14400
C1529       C  0.80202445  0.52110722  0.66453205    -0.15200
C1530       C  0.77974138  0.52120898  0.64083452    -0.30300
H1531       H  0.78452048  0.49511887  0.68054326     0.13900
H1532       H  0.79741728  0.04312005  0.63023645     0.14400
C1533       C  0.64318502  0.53529510  0.72246220    -0.15200
C1534       C  0.64006924  0.49516852  0.72379139    -0.30300
H1535       H  0.63797615  0.54717968  0.70197309     0.13900
H1536       H  0.64727260  0.98403693  0.75016635     0.14400
C1537       C  0.57206120  0.63952300  0.76481269    -0.15200
C1538       C  0.54408086  0.61139866  0.74494104    -0.30300
H1539       H  0.56867952  0.66718145  0.77259666     0.13900
H1540       H  0.55049448  0.58646037  0.73553288     0.14400
C1541       C  0.82917058  0.67656639  0.75965187    -0.15200
C1542       C  0.83212911  0.66749762  0.73179078    -0.30300
H1543       H  0.85743148  0.68646662  0.77397070     0.13900
H1544       H  0.80342418  0.65665064  0.71772066     0.14400
C1545       C  0.84348650  0.93240730  0.08999411    -0.15200
C1546       C  0.87706561  0.92823633  0.07894127    -0.30300
H1547       H  0.80943264  0.90451479  0.08965610     0.13900
H1548       H  0.91060748  0.95706577  0.07839996     0.14400
C1549       C  0.82458273  0.66081096  0.11172207    -0.15200
C1550       C  0.80773514  0.66124393  0.08576616    -0.30300
H1551       H  0.83930632  0.69055066  0.12508177     0.13900
H1552       H  0.79346909  0.63181399  0.07214680     0.14400
C1553       C  0.00303608  0.84654426  0.11667533    -0.15200
C1554       C  0.96232377  0.84238931  0.11852647    -0.30300
H1555       H  0.01390964  0.83852383  0.09673469     0.13900
H1556       H  0.95136093  0.84851552  0.13912308     0.14400
C1557       C  0.97487416  0.68899961  0.17705936    -0.15200
C1558       C  0.97258543  0.71042270  0.20054950    -0.30300
H1559       H  0.00193569  0.70674649  0.16169471     0.13900
H1560       H  0.44295350  0.69569978  0.20956052     0.14400
C1561       C  0.71312410  0.98350168  0.14843553    -0.15200
C1562       C  0.69954594  0.95992887  0.17291641    -0.30300
H1563       H  0.70884483  0.43242924  0.14107070     0.13900
H1564       H  0.72414526  0.96214326  0.18836956     0.14400
C1565       C  0.62328580  0.95637964  0.28396610    -0.15200
C1566       C  0.63528406  0.99957813  0.28375981    -0.30300
H1567       H  0.63006622  0.94229847  0.30289916     0.13900
H1568       H  0.62477014  0.01316988  0.26637681     0.14400
C1569       C  0.88368006  0.87443432  0.38786318    -0.15200
C1570       C  0.87691997  0.83462448  0.39683890    -0.30300
H1571       H  0.91000083  0.90487701  0.39749548     0.13900
H1572       H  0.85268920  0.80471133  0.38554690     0.14400
C1573       C  0.84413060  0.95342501  0.21976637    -0.15200
C1574       C  0.86713542  0.99801798  0.21962573    -0.30300
H1575       H  0.82760044  0.93565212  0.20015151     0.13900
H1576       H  0.90284787  0.50251801  0.23033256     0.14400
C1577       C  0.94987356  0.87537373  0.23777599    -0.15200
C1578       C  0.93729660  0.87007094  0.26554956    -0.30300
H1579       H  0.93295897  0.88463054  0.22189334     0.13900
H1580       H  0.95730847  0.86553673  0.28175279     0.14400
C1581       C  0.67274080  0.82672618  0.27582985    -0.15200
C1582       C  0.65755538  0.81276687  0.24902833    -0.30300
H1583       H  0.65616682  0.83943392  0.28952565     0.13900
H1584       H  0.67442608  0.80082141  0.23498425     0.14400
C1585       C  0.75703082  0.71957861  0.31355928    -0.15200
C1586       C  0.72429011  0.69507481  0.33237669    -0.30300
H1587       H  0.77447616  0.70526130  0.30242733     0.13900
H1588       H  0.70725380  0.70992855  0.34341550     0.14400
C1589       C  0.79280063  0.97819758  0.34252893    -0.15200
C1590       C  0.75908596  0.96988374  0.36075266    -0.30300
H1591       H  0.80998370  0.00998219  0.33134508     0.13900
H1592       H  0.74134620  0.93802601  0.37179116     0.14400
C1593       C  0.87110587  0.50246846  0.79036136    -0.15200
C1594       C  0.86717599  0.53759632  0.78254690    -0.30300
H1595       H  0.89509645  0.98659529  0.78232881     0.13900
H1596       H  0.84479071  0.54527379  0.79441559     0.14400
C1597       C  0.71456668  0.52558295  0.84428929    -0.15200
C1598       C  0.75162186  0.53465434  0.85901632    -0.30300
H1599       H  0.68879923  0.49119649  0.84058893     0.13900
H1600       H  0.77586718  0.56894270  0.86444348     0.14400
C1601       C  0.75647730  0.78243834  0.81377311    -0.15200
C1602       C  0.77473697  0.80077399  0.83921382    -0.30300
H1603       H  0.75397294  0.80253590  0.79674723     0.13900
H1604       H  0.77966688  0.78092806  0.85532605     0.14400
C1605       C  0.85945210  0.85272491  0.95689114    -0.15200
C1606       C  0.83807547  0.87591917  0.95905086    -0.30300
H1607       H  0.86925616  0.84643636  0.93595432     0.13900
H1608       H  0.82483187  0.87832294  0.97981343     0.14400
C1609       C  0.00002839  0.62989047  0.05468927    -0.15200
C1610       C  0.96208631  0.63030741  0.06030418    -0.30300
H1611       H  0.50928592  0.61357130  0.07006839     0.13900
H1612       H  0.95437897  0.65224709  0.04803832     0.14400
C1613       C  0.61184233  0.65563144  0.88638247    -0.15200
C1614       C  0.63189041  0.63105023  0.88696777    -0.30300
H1615       H  0.61094916  0.67117064  0.86624924     0.13900
H1616       H  0.63682321  0.61872017  0.90733166     0.14400
C1617       C  0.93806248  0.57788964  0.93815450    -0.15200
C1618       C  0.92928358  0.56802760  0.91001872    -0.30300
H1619       H  0.91640529  0.55459246  0.95451228     0.13900
H1620       H  0.95313751  0.58928723  0.89375551     0.14400
C1621       C  0.65966862  0.83148549  0.93873111    -0.15200
C1622       C  0.66410943  0.83945666  0.91022890    -0.30300
H1623       H  0.68664890  0.85316072  0.95316124     0.13900
H1624       H  0.63908062  0.81556039  0.89555170     0.14400
C1625       C  0.98760126  0.77193160  0.99084771    -0.15200
C1626       C  0.94377314  0.74652742  0.99586674    -0.30300
H1627       H  0.43086627  0.72119410  0.97613946     0.13900
H1628       H  0.92746854  0.71086750  0.99199527     0.14400
C1629       C  0.70793265  0.73989312  0.03361667    -0.15200
C1630       C  0.68814180  0.71567599  0.00991182    -0.30300
H1631       H  0.68898718  0.74671257  0.04943383     0.13900
H1632       H  0.70716154  0.70703269  0.99527215     0.14400
loop_ 
_geom_bond_atom_site_label_1 
_geom_bond_atom_site_label_2 
_geom_bond_distance 
_geom_bond_site_symmetry_2 
_ccdc_geom_bond_type 
O1          Cr19   2.015       .  S
O1            C9   1.266       .  A
O2          Cr19   1.976   1_554  S
O2            C3   1.258       .  A
C3            O4   1.267       .  A
C3         C1201   1.475       .  S
O4          Cr20   2.022   1_554  S
O5          Cr20   1.979       .  S
O5          C822   1.259   1_455  A
C6            O7   1.264       .  A
C6          O821   1.259       .  A
C6          C393   1.464       .  S
O7         Cr837   1.998       .  S
O8          Cr21   1.985   1_655  S
O8            C9   1.259   1_655  A
C9         C1217   1.478   1_455  S
O10         Cr19   1.965       .  S
O10          C18   1.259       .  A
O11         Cr19   2.030   1_554  S
O11          C12   1.270       .  A
C12          O13   1.257   1_554  A
C12         C406   1.478       .  S
O13         Cr20   1.966       .  S
O14         Cr20   2.021       .  S
O14          C15   1.269       .  A
C15          O16   1.262       .  A
C15         C389   1.482       .  S
O16         Cr21   1.979       .  S
O17         Cr21   2.006       .  S
O17          C18   1.268       .  A
C18         C397   1.466       .  S
Cr19         O22   1.775       .  S
Cr20         O22   1.769       .  S
Cr21        O823   1.997       .  S
Cr21         O22   1.766       .  S
O23         Cr41   2.018       .  S
O23          C31   1.267       .  A
O24         Cr41   1.977       .  S
O24          C25   1.258       .  A
C25          O26   1.261       .  A
C25         C777   1.468       .  S
O26         Cr42   2.005       .  S
O27         Cr42   1.977       .  S
O27         C436   1.260       .  A
C28          O29   1.264       .  A
C28         O435   1.259   1_545  A
C28         C394   1.463       .  S
O29        Cr451   1.997   1_545  S
O30         Cr43   1.977       .  S
O30          C31   1.259       .  A
C31         C782   1.477       .  S
O32         Cr41   1.961       .  S
O32          C40   1.257       .  A
O33         Cr41   2.034       .  S
O33          C34   1.272       .  A
C34          O35   1.256       .  A
C34         C378   1.476       .  S
O35         Cr42   1.964       .  S
O36         Cr42   1.992       .  S
O36          C37   1.263       .  A
C37          O38   1.260       .  A
C37         C382   1.467       .  S
O38         Cr43   1.981       .  S
O39         Cr43   2.005       .  S
O39          C40   1.267       .  A
C40         C398   1.463       .  S
Cr41         O44   1.772       .  S
Cr42         O44   1.765       .  S
Cr43        O437   2.005       .  S
Cr43         O44   1.767       .  S
O45         Cr63   2.010       .  S
O45          C53   1.264       .  A
O46         Cr63   1.968       .  S
O46          C47   1.258       .  A
C47          O48   1.267       .  A
C47         C345   1.466       .  S
O48         Cr64   2.020       .  S
O49         Cr64   1.965       .  S
O49          C50   1.258       .  A
C50          O51   1.267       .  A
C50         C354   1.466       .  S
O51         Cr65   2.001       .  S
O52         Cr65   1.988       .  S
O52          C53   1.259       .  A
C53         C361   1.486       .  S
O54         Cr63   1.952       .  S
O54          C62   1.259       .  A
O55         Cr63   2.026       .  S
O55          C56   1.268       .  A
C56          O57   1.255       .  A
C56         C365   1.475       .  S
O57         Cr64   1.964       .  S
O58         Cr64   2.007       .  S
O58          C59   1.265       .  A
C59          O60   1.259       .  A
C59         C349   1.475       .  S
O60         Cr65   1.975       .  S
O61         Cr65   2.015       .  S
O61          C62   1.269       .  A
C62         C357   1.462       .  S
Cr63         O66   1.773       .  S
Cr64         O66   1.775       .  S
Cr65         O66   1.773       .  S
O67         Cr85   1.965       .  S
O67          C75   1.256       .  A
O68         Cr85   2.031       .  S
O68          C69   1.274       .  A
C69          O70   1.257       .  A
C69        C1145   1.472   1_455  S
O70         Cr86   1.956       .  S
O71         Cr86   2.006       .  S
O71         C888   1.262   1_455  A
C72          O73   1.251       .  A
C72         O887   1.265       .  A
C72         C353   1.459       .  S
O73        Cr903   1.962       .  S
O74         Cr87   2.003       .  S
O74          C75   1.262       .  A
C75        C1150   1.463   1_455  S
O76         Cr85   2.023       .  S
O76          C84   1.268       .  A
O77         Cr85   1.967       .  S
O77          C78   1.256       .  A
C78          O79   1.263       .  A
C78         C338   1.478       .  S
O79         Cr86   2.017       .  S
O80         Cr86   1.970       .  S
O80          C81   1.262       .  A
C81          O82   1.272       .  A
C81         C341   1.476       .  S
O82         Cr87   2.026       .  S
O83         Cr87   1.943       .  S
O83          C84   1.257       .  A
C84         C358   1.477       .  S
Cr85         O88   1.775       .  S
Cr86         O88   1.776       .  S
Cr87        O889   1.971   1_455  S
Cr87         O88   1.766       .  S
O89        Cr107   1.978       .  S
O89         C505   1.260       .  A
O90        Cr107   2.010       .  S
O90          C91   1.263       .  A
C91          O92   1.261       .  A
C91         C758   1.473       .  S
O92        Cr108   1.987       .  S
O93        Cr516   1.987       .  S
O93          C94   1.261       .  A
C94          O95   1.257       .  A
C94         C321   1.469       .  S
O95        Cr517   1.980       .  S
O96        Cr109   2.009       .  S
O96         C505   1.262       .  A
C97         O497   1.256       .  A
C97         O504   1.268       .  A
C97         C337   1.466       .  S
O98        Cr107   2.013       .  S
O98         C106   1.266       .  A
O99        Cr107   1.963       .  S
O99         C100   1.259       .  A
C100        O101   1.267       .  A
C100        C333   1.469       .  S
O101       Cr108   2.012       .  S
O102       Cr108   1.983       .  S
O102        C103   1.261       .  A
C103        O104   1.267       .  A
C103        C386   1.481       .  S
O104       Cr109   2.015       .  S
O105       Cr109   1.946       .  S
O105        C106   1.256       .  A
C106        C325   1.462       .  S
Cr107       O110   1.771       .  S
Cr108       O501   2.000       .  S
Cr108       O110   1.767       .  S
Cr109       O503   1.973   1_545  S
Cr109       O110   1.772       .  S
O111       Cr129   1.971       .  S
O111        C119   1.261       .  A
O112       Cr129   2.011   1_556  S
O112        C113   1.266       .  A
C113        O114   1.260       .  A
C113        C381   1.461       .  S
O114       Cr130   1.972   1_556  S
O115       Cr130   2.002       .  S
O115        C116   1.262       .  A
C116        O117   1.255       .  A
C116        C322   1.464       .  S
O117       Cr131   1.969       .  S
O118       Cr131   2.020       .  S
O118        C119   1.268       .  A
C119        C405   1.483       .  S
O120       Cr129   1.998       .  S
O120        C128   1.263       .  A
O121       Cr129   1.975       .  S
O121        C122   1.258   1_554  A
C122        O123   1.263       .  A
C122        C402   1.474       .  S
O123       Cr130   2.007   1_556  S
O124       Cr130   1.975       .  S
O124        C125   1.260       .  A
C125        O126   1.275       .  A
C125        C330   1.482       .  S
O126       Cr131   2.030       .  S
O127       Cr131   1.955       .  S
O127        C128   1.256       .  A
C128        C326   1.460       .  S
Cr129       O132   1.772       .  S
Cr130       O132   1.770       .  S
Cr131       O132   1.768       .  S
O133       Cr151   1.983       .  S
O133        C141   1.260       .  A
O134       Cr151   2.017       .  S
O134        C135   1.266       .  A
C135        O136   1.263       .  A
C135        C390   1.479       .  S
O136       Cr152   1.989       .  S
O137       Cr152   2.012       .  S
O137        C138   1.265       .  A
C138        O139   1.257       .  A
C138        C313   1.470       .  S
O139       Cr153   1.981       .  S
O140       Cr153   2.002       .  S
O140        C141   1.261       .  A
C141        C377   1.479       .  S
O142       Cr151   2.022       .  S
O142        C150   1.269       .  A
O143       Cr151   1.979       .  S
O143        C144   1.260       .  A
C144        O145   1.267       .  A
C144        C373   1.481       .  S
O145       Cr152   2.016       .  S
O146       Cr152   1.995       .  S
O146        C147   1.265       .  A
C147        O148   1.266       .  A
C147        C309   1.481       .  S
O148       Cr153   2.010       .  S
O149       Cr153   1.966       .  S
O149        C150   1.261       .  A
C150        C317   1.482       .  S
Cr151       O154   1.780       .  S
Cr152       O154   1.772       .  S
Cr153       O154   1.772       .  S
O155       Cr173   2.012       .  S
O155        C163   1.267       .  A
O156       Cr173   1.971       .  S
O156        C157   1.260       .  A
C157        O158   1.269       .  A
C157       C1113   1.479       .  S
O158       Cr174   2.024       .  S
O159       Cr174   1.970       .  S
O159        C976   1.259       .  A
C160        O161   1.266   1_455  A
C160        O975   1.260   1_455  A
C160        C314   1.472       .  S
O161       Cr991   2.006       .  S
O162       Cr175   1.981       .  S
O162        C163   1.258       .  A
C163       C1117   1.475       .  S
O164       Cr173   1.969       .  S
O164        C172   1.259       .  A
O165       Cr173   2.019       .  S
O165        C166   1.267       .  A
C166        O167   1.255       .  A
C166        C305   1.473       .  S
O167       Cr174   1.967       .  S
O168       Cr174   2.008       .  S
O168        C169   1.266       .  A
C169        O170   1.259       .  A
C169        C370   1.471       .  S
O170       Cr175   1.974       .  S
O171       Cr175   2.017       .  S
O171        C172   1.268       .  A
C172        C318   1.475       .  S
Cr173       O176   1.770       .  S
Cr174       O176   1.770       .  S
Cr175       O977   2.005       .  S
Cr175       O176   1.767       .  S
O177       Cr195   1.985       .  S
O177       C1001   1.260       .  A
O178       Cr195   2.034       .  S
O178        C179   1.275       .  A
C179        O180   1.256       .  A
C179       C1093   1.475       .  S
O180       Cr196   1.954       .  S
O181      Cr1012   2.018       .  S
O181        C182   1.266   1_655  A
C182        O183   1.253       .  A
C182        C282   1.464       .  S
O183      Cr1013   1.969   1_455  S
O184       Cr197   2.003       .  S
O184       C1001   1.260       .  A
C185        O993   1.259       .  A
C185       O1000   1.261       .  A
C185        C289   1.480   1_655  S
O186       Cr195   2.028       .  S
O186        C194   1.272       .  A
O187       Cr195   1.988       .  S
O187        C188   1.259       .  A
C188        O189   1.264       .  A
C188        C293   1.490       .  S
O189       Cr196   2.015       .  S
O190       Cr196   1.966       .  S
O190        C191   1.259       .  A
C191        O192   1.268       .  A
C191        C346   1.467       .  S
O192       Cr197   2.017       .  S
O193       Cr197   1.945       .  S
O193        C194   1.258       .  A
C194        C285   1.477       .  S
Cr195       O198   1.779       .  S
Cr196       O997   2.011       .  S
Cr196       O198   1.779       .  S
Cr197       O999   1.969       .  S
Cr197       O198   1.772       .  S
O199       Cr217   2.009       .  S
O199        C615   1.268   1_545  A
O200       Cr217   1.981       .  S
O200        C201   1.262       .  A
C201        O202   1.266       .  A
C201        C750   1.477   1_545  S
O202       Cr218   2.006       .  S
O203       Cr626   1.963       .  S
O203        C204   1.257       .  A
C204        O205   1.268       .  A
C204        C281   1.469       .  S
O205       Cr627   2.012       .  S
O206       Cr219   1.991   1_565  S
O206        C615   1.263       .  A
C207        O607   1.267       .  A
C207        O614   1.260       .  A
C207        C366   1.482       .  S
O208       Cr217   1.971       .  S
O208        C216   1.259       .  A
O209       Cr217   2.017       .  S
O209        C210   1.267       .  A
C210        O211   1.259       .  A
C210        C362   1.482       .  S
O211       Cr218   1.977       .  S
O212       Cr218   2.014       .  S
O212        C213   1.267       .  A
C213        O214   1.258       .  A
C213        C274   1.476       .  S
O214       Cr219   1.976       .  S
O215       Cr219   2.002       .  S
O215        C216   1.264       .  A
C216        C286   1.467       .  S
Cr217       O220   1.773       .  S
Cr218       O611   1.971   1_545  S
Cr218       O220   1.771       .  S
Cr219       O613   2.012   1_545  S
Cr219       O220   1.775       .  S
O221       Cr239   1.961       .  S
O221        C229   1.261       .  A
O222       Cr239   2.022       .  S
O222        C223   1.267       .  A
C223        O224   1.261       .  A
C223        C718   1.482       .  S
O224       Cr240   1.979       .  S
O225       Cr240   2.008       .  S
O225        C634   1.264       .  A
C226        O227   1.256       .  A
C226        O633   1.265   1_545  A
C226        C265   1.469       .  S
O227       Cr649   1.978   1_545  S
O228       Cr241   2.021       .  S
O228        C229   1.268       .  A
C229        C714   1.480       .  S
O230       Cr239   2.014       .  S
O230        C238   1.265       .  A
O231       Cr239   1.977       .  S
O231        C232   1.259       .  A
C232        O233   1.265       .  A
C232        C302   1.475       .  S
O233       Cr240   2.009       .  S
O234       Cr240   1.977       .  S
O234        C235   1.258       .  A
C235        O236   1.271       .  A
C235        C278   1.479       .  S
O236       Cr241   2.015       .  S
O237       Cr241   1.972       .  S
O237        C238   1.259       .  A
C238        C269   1.481       .  S
Cr239       O242   1.777       .  S
Cr240       O242   1.773       .  S
Cr241       O635   1.976       .  S
Cr241       O242   1.777       .  S
O243       Cr261   2.022       .  S
O243        C251   1.267       .  A
O244       Cr261   1.980       .  S
O244        C245   1.261       .  A
C245        O246   1.265       .  A
C245        C273   1.474       .  S
O246       Cr262   2.012       .  S
O247       Cr262   1.972       .  S
O247        C248   1.261       .  A
C248        O249   1.269       .  A
C248        C266   1.474       .  S
O249       Cr263   2.016       .  S
O250       Cr263   1.993       .  S
O250        C251   1.262       .  A
C251        C294   1.490       .  S
O252       Cr261   1.967       .  S
O252        C260   1.258       .  A
O253       Cr261   2.025       .  S
O253        C254   1.269       .  A
C254        O255   1.257       .  A
C254        C290   1.479       .  S
O255       Cr262   1.973       .  S
O256       Cr262   2.004       .  S
O256        C257   1.262       .  A
C257        O258   1.260       .  A
C257        C298   1.476       .  S
O258       Cr263   1.986       .  S
O259       Cr263   2.018       .  S
O259        C260   1.270       .  A
C260        C270   1.476       .  S
Cr261       O264   1.775       .  S
Cr262       O264   1.772       .  S
Cr263       O264   1.768       .  S
C265        C266   1.343       .  D
C265        H267   1.086       .  S
C266        H268   1.088       .  S
C269        C270   1.345       .  D
C269        H271   1.087       .  S
C270        H272   1.087       .  S
C273        C274   1.343       .  D
C273        H275   1.087       .  S
C274        H276   1.087       .  S
C277        C995   1.473   1_455  S
C277        C278   1.339       .  D
C277        H279   1.088       .  S
C278        H280   1.086   1_455  S
C281        C282   1.338       .  D
C281        H283   1.088       .  S
C282        H284   1.086       .  S
C285        C286   1.349       .  D
C285        H287   1.086       .  S
C286        H288   1.087       .  S
C289        C290   1.343       .  D
C289        H291   1.086       .  S
C290        H292   1.087   1_455  S
C293        C294   1.350       .  D
C293        H295   1.086       .  S
C294        H296   1.086       .  S
C297        C973   1.476   1_455  S
C297        C298   1.348       .  D
C297       H1115   1.086   1_455  S
C298        H300   1.087       .  S
H299       C1113   1.087       .  S
C301        C979   1.476   1_455  S
C301        C302   1.343       .  D
C301       H1119   1.087       .  S
C302        H304   1.087   1_455  S
H303       C1117   1.087       .  S
C305        C306   1.341       .  D
C305        H307   1.087   1_545  S
C306        C637   1.475   1_545  S
C306        H716   1.087       .  S
H308        C714   1.086       .  S
C309        C310   1.344   1_545  D
C309        H311   1.087       .  S
C310        C631   1.484       .  S
C310        H720   1.086       .  S
H312        C718   1.086       .  S
C313        C314   1.344       .  D
C313        H315   1.086       .  S
C314        H316   1.088       .  S
C317        C318   1.347       .  D
C317        H319   1.087       .  S
C318        H320   1.087       .  S
C321        C322   1.344       .  D
C321        H323   1.086       .  S
C322        H324   1.088       .  S
C325        C326   1.342       .  D
C325        H327   1.087       .  S
C326        H328   1.087       .  S
C329        C885   1.477       .  S
C329        C330   1.340       .  D
C329        H331   1.087       .  S
C330        H332   1.086       .  S
C333        C334   1.339       .  D
C333        H335   1.087       .  S
C334        C891   1.464       .  S
C334       H1152   1.087       .  S
H336       C1150   1.087       .  S
C337        C338   1.342       .  D
C337        H747   1.087       .  S
C338        H340   1.087       .  S
H339        C745   1.087       .  S
C341        C342   1.345       .  D
C341        H343   1.087       .  S
C342        C609   1.474       .  S
C342        H344   1.086       .  S
C345        C346   1.341       .  D
C345        H347   1.087       .  S
C346        H348   1.087       .  S
C349        C350   1.342       .  D
C349        H351   1.087       .  S
C350        C499   1.472       .  S
C350        H760   1.087       .  S
H352        C758   1.087       .  S
C353        C354   1.337       .  D
C353        H355   1.087       .  S
C354        H356   1.088       .  S
C357        C358   1.345       .  D
C357        H359   1.087       .  S
C358        H360   1.086       .  S
C361        C362   1.348       .  D
C361        H363   1.086       .  S
C362        H364   1.087       .  S
C365        C366   1.344       .  D
C365        H367   1.087       .  S
C366        H368   1.086       .  S
C369        C433   1.470       .  S
C369        C370   1.343   1_565  D
C369        H779   1.087       .  S
C370        H372   1.087       .  S
H371        C777   1.087       .  S
C373        C374   1.348       .  D
C373        H375   1.087   1_545  S
C374        C439   1.483   1_545  S
C374        H376   1.087       .  S
C377        C378   1.340       .  D
C377        H379   1.087       .  S
C378        H380   1.087       .  S
C381        C382   1.342       .  D
C381        H383   1.087       .  S
C382        H384   1.087       .  S
C385        C819   1.478       .  S
C385        C386   1.345       .  D
C385       H1203   1.086       .  S
C386        H388   1.087       .  S
H387       C1201   1.086       .  S
C389        C390   1.345       .  D
C389        H391   1.087       .  S
C390        H392   1.086       .  S
C393        C394   1.343       .  D
C393        H395   1.087       .  S
C394        H396   1.087       .  S
C397        C398   1.340       .  D
C397        H399   1.087       .  S
C398        H400   1.087       .  S
C401        C825   1.472       .  S
C401        C402   1.342       .  D
C401       H1219   1.087       .  S
C402        H404   1.087       .  S
H403       C1217   1.087       .  S
C405        C406   1.345       .  D
C405        H407   1.086       .  S
C406        H408   1.088   1_554  S
O409       Cr427   1.992   1_556  S
O409        C417   1.256       .  A
O410       Cr427   1.990       .  S
O410        C411   1.264       .  A
C411        O412   1.267       .  A
C411       C1609   1.478       .  S
O412       Cr428   2.015   1_554  S
O413       Cr428   1.978   1_655  S
O413       C1230   1.260       .  A
C414       O1229   1.260       .  A
C414        O415   1.264       .  A
C414        C801   1.468       .  S
O415      Cr1245   1.998       .  S
O416       Cr429   2.005       .  S
O416        C417   1.264       .  A
C417       C1625   1.474   1_455  S
O418       Cr427   1.973   1_556  S
O418        C426   1.264       .  A
O419       Cr427   2.007       .  S
O419        C420   1.264       .  A
C420        O421   1.257   1_554  A
C420        C814   1.477       .  S
O421       Cr428   1.981       .  S
O422       Cr428   2.004       .  S
O422        C423   1.265       .  A
C423        O424   1.263       .  A
C423        C797   1.482       .  S
O424       Cr429   1.989       .  S
O425       Cr429   2.005       .  S
O425        C426   1.269       .  A
C426        C805   1.468       .  S
Cr427       O430   1.775   1_554  S
Cr428       O430   1.770       .  S
Cr429      O1231   1.997   1_455  S
Cr429       O430   1.769       .  S
O431       Cr449   2.007       .  S
O431        C439   1.264       .  A
O432       Cr449   1.975       .  S
O432        C433   1.260       .  A
C433        O434   1.264       .  A
O434       Cr450   2.011       .  S
O435       Cr450   1.974       .  S
C436        O437   1.266       .  A
C436        C802   1.467       .  S
O438       Cr451   1.993   1_545  S
O438        C439   1.261   1_545  A
O440       Cr449   1.967       .  S
O440        C448   1.260       .  A
O441       Cr449   2.019       .  S
O441        C442   1.267       .  A
C442        O443   1.256       .  A
C442        C786   1.470       .  S
O443       Cr450   1.968       .  S
O444       Cr450   2.001       .  S
O444        C445   1.265       .  A
C445        O446   1.261       .  A
C445        C790   1.474       .  S
O446       Cr451   1.983       .  S
O447       Cr451   2.004       .  S
O447        C448   1.268       .  A
C448        C806   1.465       .  S
Cr449       O452   1.773       .  S
Cr450       O452   1.768       .  S
Cr451       O452   1.767       .  S
O453       Cr471   2.012       .  S
O453        C461   1.266       .  A
O454       Cr471   1.968       .  S
O454        C455   1.259       .  A
C455        O456   1.269       .  A
C455        C753   1.473       .  S
O456       Cr472   2.025       .  S
O457       Cr472   1.974       .  S
O457        C458   1.261       .  A
C458        O459   1.267       .  A
C458        C762   1.475       .  S
O459       Cr473   2.009       .  S
O460       Cr473   1.983       .  S
O460        C461   1.256       .  A
C461        C769   1.485       .  S
O462       Cr471   1.956       .  S
O462        C470   1.257       .  A
O463       Cr471   2.023       .  S
O463        C464   1.267       .  A
C464        O465   1.257       .  A
C464        C773   1.479       .  S
O465       Cr472   1.970       .  S
O466       Cr472   2.013       .  S
O466        C467   1.267       .  A
C467        O468   1.258       .  A
C467        C757   1.476       .  S
O468       Cr473   1.972       .  S
O469       Cr473   2.022       .  S
O469        C470   1.271       .  A
C470        C765   1.470       .  S
Cr471       O474   1.776       .  S
Cr472       O474   1.774       .  S
Cr473       O474   1.775       .  S
O475       Cr493   1.947       .  S
O475        C483   1.258       .  A
O476       Cr493   2.024       .  S
O476        C477   1.267       .  A
C477        O478   1.260       .  A
C477       C1553   1.483       .  S
O478       Cr494   1.974       .  S
O479       Cr494   2.011       .  S
O479       C1296   1.266   1_455  A
C480       O1295   1.266       .  A
C480        O481   1.256       .  A
C480        C761   1.471       .  S
O481      Cr1311   1.975       .  S
O482       Cr495   2.028       .  S
O482        C483   1.270       .  A
C483       C1558   1.473   1_455  S
O484       Cr493   2.007       .  S
O484        C492   1.262       .  A
O485       Cr493   1.961       .  S
O485        C486   1.253       .  A
C486        O487   1.267       .  A
C486        C746   1.467       .  S
O487       Cr494   2.019       .  S
O488       Cr494   1.977       .  S
O488        C489   1.259       .  A
C489        O490   1.270       .  A
C489        C749   1.474       .  S
O490       Cr495   2.024       .  S
O491       Cr495   1.969       .  S
O491        C492   1.259       .  A
C492        C766   1.475       .  S
Cr493       O496   1.769       .  S
Cr494       O496   1.767       .  S
Cr495      O1297   1.967   1_455  S
Cr495       O496   1.771       .  S
O497       Cr515   1.964       .  S
O498       Cr515   2.009       .  S
O498        C499   1.263       .  A
C499        O500   1.261       .  A
O500       Cr516   1.989       .  S
O501        C502   1.268   1_545  A
C502        O503   1.255       .  A
C502        C729   1.470       .  S
O504       Cr517   2.024       .  S
C505        C745   1.469   1_545  S
O506       Cr515   2.016       .  S
O506        C514   1.265       .  A
O507       Cr515   1.959       .  S
O507        C508   1.258       .  A
C508        O509   1.265       .  A
C508        C741   1.459       .  S
O509       Cr516   2.005       .  S
O510       Cr516   1.976       .  S
O510        C511   1.263       .  A
C511        O512   1.271       .  A
C511        C794   1.478       .  S
O512       Cr517   2.021       .  S
O513       Cr517   1.951       .  S
O513        C514   1.255       .  A
C514        C733   1.473       .  S
Cr515       O518   1.775       .  S
Cr516       O518   1.769       .  S
Cr517       O518   1.771       .  S
O519       Cr537   1.973       .  S
O519        C527   1.259       .  A
O520       Cr537   2.012   1_556  S
O520        C521   1.266       .  A
C521        O522   1.261   1_556  A
C521        C789   1.468       .  S
O522       Cr538   1.980       .  S
O523       Cr538   1.976       .  S
O523        C524   1.255       .  A
C524        O525   1.260       .  A
C524        C730   1.461       .  S
O525       Cr539   1.990       .  S
O526       Cr539   2.004       .  S
O526        C527   1.263       .  A
C527        C813   1.475       .  S
O528       Cr537   1.997       .  S
O528        C536   1.264       .  A
O529       Cr537   1.976       .  S
O529        C530   1.257       .  A
C530        O531   1.259       .  A
C530        C810   1.468   1_554  S
O531       Cr538   1.996       .  S
O532       Cr538   1.991       .  S
O532        C533   1.267       .  A
C533        O534   1.268       .  A
C533        C738   1.476       .  S
O534       Cr539   2.009       .  S
O535       Cr539   1.973       .  S
O535        C536   1.260       .  A
C536        C734   1.468       .  S
Cr537       O540   1.780       .  S
Cr538       O540   1.774       .  S
Cr539       O540   1.777       .  S
O541       Cr559   1.970       .  S
O541        C549   1.259       .  A
O542       Cr559   2.021       .  S
O542        C543   1.269       .  A
C543        O544   1.262       .  A
C543        C798   1.479       .  S
O544       Cr560   1.987       .  S
O545       Cr560   2.003       .  S
O545        C546   1.263       .  A
C546        O547   1.255       .  A
C546        C721   1.463       .  S
O547       Cr561   1.977       .  S
O548       Cr561   2.005       .  S
O548        C549   1.263       .  A
C549        C785   1.474       .  S
O550       Cr559   2.019       .  S
O550        C558   1.268       .  A
O551       Cr559   1.972       .  S
O551        C552   1.259       .  A
C552        O553   1.265       .  A
C552        C781   1.479       .  S
O553       Cr560   2.014       .  S
O554       Cr560   1.987       .  S
O554        C555   1.264       .  A
C555        O556   1.269       .  A
C555        C717   1.480       .  S
O556       Cr561   2.019       .  S
O557       Cr561   1.961       .  S
O557        C558   1.259       .  A
C558        C725   1.477       .  S
Cr559       O562   1.773       .  S
Cr560       O562   1.770       .  S
Cr561       O562   1.770       .  S
O563       Cr581   2.019       .  S
O563        C571   1.268       .  A
O564       Cr581   1.975       .  S
O564        C565   1.261       .  A
C565        O566   1.266       .  A
C565       C1521   1.476       .  S
O566       Cr582   2.015       .  S
O567       Cr582   1.962       .  S
O567       C1384   1.257       .  A
C568       O1383   1.258   1_455  A
C568        O569   1.267   1_455  A
C568        C722   1.463       .  S
O569      Cr1399   2.008       .  S
O570       Cr583   1.980       .  S
O570        C571   1.259       .  A
C571       C1525   1.478       .  S
O572       Cr581   1.969       .  S
O572        C580   1.259       .  A
O573       Cr581   2.029       .  S
O573        C574   1.268       .  A
C574        O575   1.254       .  A
C574        C713   1.470       .  S
O575       Cr582   1.955       .  S
O576       Cr582   2.006       .  S
O576        C577   1.265       .  A
C577        O578   1.258       .  A
C577        C778   1.472       .  S
O578       Cr583   1.977       .  S
O579       Cr583   2.009       .  S
O579        C580   1.267       .  A
C580        C726   1.471       .  S
Cr581       O584   1.772       .  S
Cr582       O584   1.768       .  S
Cr583      O1385   2.009       .  S
Cr583       O584   1.766       .  S
O585       Cr603   1.977       .  S
O585       C1409   1.258       .  A
O586       Cr603   2.039       .  S
O586        C587   1.274       .  A
C587        O588   1.257       .  A
C587       C1501   1.482       .  S
O588       Cr604   1.960       .  S
O589      Cr1420   1.976   1_455  S
O589        C590   1.255       .  A
C590        O591   1.263   1_455  A
C590        C690   1.472       .  S
O591      Cr1421   2.006       .  S
O592       Cr605   2.000       .  S
O592       C1409   1.260       .  A
C593       O1401   1.271       .  A
C593       O1408   1.262   1_655  A
C593        C697   1.484   1_655  S
O594       Cr603   2.033       .  S
O594        C602   1.273       .  A
O595       Cr603   1.980       .  S
O595        C596   1.257       .  A
C596        O597   1.267       .  A
C596        C701   1.489       .  S
O597       Cr604   2.020       .  S
O598       Cr604   1.970       .  S
O598        C599   1.259       .  A
C599        O600   1.267       .  A
C599        C754   1.468       .  S
O600       Cr605   2.015       .  S
O601       Cr605   1.948       .  S
O601        C602   1.258       .  A
C602        C693   1.482       .  S
Cr603       O606   1.782       .  S
Cr604      O1405   2.019       .  S
Cr604       O606   1.779       .  S
Cr605      O1407   1.970       .  S
Cr605       O606   1.773       .  S
O607       Cr625   2.008       .  S
O608       Cr625   1.978       .  S
O608        C609   1.259       .  A
C609        O610   1.267       .  A
O610       Cr626   2.020       .  S
O611        C612   1.257       .  A
C612        O613   1.265       .  A
C612        C689   1.470       .  S
O614       Cr627   1.984       .  S
C615        C774   1.486       .  S
O616       Cr625   1.967       .  S
O616        C624   1.259       .  A
O617       Cr625   2.032       .  S
O617        C618   1.270       .  A
C618        O619   1.254       .  A
C618        C770   1.479       .  S
O619       Cr626   1.960       .  S
O620       Cr626   2.012       .  S
O620        C621   1.267       .  A
C621        O622   1.257       .  A
C621        C682   1.470       .  S
O622       Cr627   1.969       .  S
O623       Cr627   2.013       .  S
O623        C624   1.267       .  A
C624        C694   1.470       .  S
Cr625       O628   1.768       .  S
Cr626       O628   1.771       .  S
Cr627       O628   1.771       .  S
O629       Cr647   1.974       .  S
O629        C637   1.261       .  A
O630       Cr647   2.014       .  S
O630        C631   1.266       .  A
C631        O632   1.264       .  A
O632       Cr648   1.988       .  S
O633       Cr648   2.015       .  S
C634        O635   1.258       .  A
C634        C673   1.475       .  S
O636       Cr649   2.006       .  S
O636        C637   1.263       .  A
O638       Cr647   2.008       .  S
O638        C646   1.265       .  A
O639       Cr647   1.980       .  S
O639        C640   1.260       .  A
C640        O641   1.266       .  A
C640        C710   1.481       .  S
O641       Cr648   2.013       .  S
O642       Cr648   1.989       .  S
O642        C643   1.263       .  A
C643        O644   1.268       .  A
C643        C686   1.482       .  S
O644       Cr649   2.021       .  S
O645       Cr649   1.970       .  S
O645        C646   1.261       .  A
C646        C677   1.473       .  S
Cr647       O650   1.779       .  S
Cr648       O650   1.772       .  S
Cr649       O650   1.773       .  S
O651       Cr669   2.022       .  S
O651        C659   1.268       .  A
O652       Cr669   1.974       .  S
O652        C653   1.260       .  A
C653        O654   1.263       .  A
C653        C681   1.470       .  S
O654       Cr670   2.009       .  S
O655       Cr670   1.982       .  S
O655        C656   1.260       .  A
C656        O657   1.267       .  A
C656        C674   1.474       .  S
O657       Cr671   2.020       .  S
O658       Cr671   1.993       .  S
O658        C659   1.264       .  A
C659        C702   1.488       .  S
O660       Cr669   1.963       .  S
O660        C668   1.256       .  A
O661       Cr669   2.025       .  S
O661        C662   1.270       .  A
C662        O663   1.258       .  A
C662        C698   1.480       .  S
O663       Cr670   1.970       .  S
O664       Cr670   2.015       .  S
O664        C665   1.267       .  A
C665        O666   1.260       .  A
C665        C706   1.479       .  S
O666       Cr671   1.982       .  S
O667       Cr671   2.010       .  S
O667        C668   1.268       .  A
C668        C678   1.469       .  S
Cr669       O672   1.772       .  S
Cr670       O672   1.770       .  S
Cr671       O672   1.767       .  S
C673        C674   1.344       .  D
C673        H675   1.087       .  S
C674        H676   1.087       .  S
C677        C678   1.342       .  D
C677        H679   1.087       .  S
C678        H680   1.087       .  S
C681        C682   1.341       .  D
C681        H683   1.087       .  S
C682        H684   1.087       .  S
C685       C1403   1.478       .  S
C685        C686   1.344   1_655  D
C685        H687   1.086       .  S
C686        H688   1.087       .  S
C689        C690   1.343       .  D
C689        H691   1.087       .  S
C690        H692   1.087       .  S
C693        C694   1.349       .  D
C693        H695   1.086       .  S
C694        H696   1.087       .  S
C697        C698   1.346       .  D
C697        H699   1.087       .  S
C698        H700   1.087   1_455  S
C701        C702   1.351       .  D
C701        H703   1.086       .  S
C702        H704   1.087       .  S
C705       C1381   1.478   1_455  S
C705        C706   1.346       .  D
C705       H1523   1.086   1_455  S
C706        H708   1.087       .  S
H707       C1521   1.086       .  S
C709       C1387   1.480   1_455  S
C709        C710   1.345       .  D
C709       H1527   1.087       .  S
C710        H712   1.087   1_455  S
H711       C1525   1.087       .  S
C713        C714   1.343       .  D
C713        H715   1.088       .  S
C717        C718   1.346       .  D
C717        H719   1.087       .  S
C721        C722   1.339       .  D
C721        H723   1.086       .  S
C722        H724   1.088       .  S
C725        C726   1.346       .  D
C725        H727   1.087       .  S
C726        H728   1.087       .  S
C729        C730   1.336       .  D
C729        H731   1.086       .  S
C730        H732   1.088       .  S
C733        C734   1.345       .  D
C733        H735   1.086       .  S
C734        H736   1.087       .  S
C737       C1293   1.481       .  S
C737        C738   1.344       .  D
C737        H739   1.086       .  S
C738        H740   1.087       .  S
C741        C742   1.336       .  D
C741        H743   1.087       .  S
C742       C1299   1.460       .  S
C742       H1560   1.087       .  S
H744       C1558   1.086       .  S
C745        C746   1.337       .  D
C746        H748   1.088       .  S
C749        C750   1.341       .  D
C749        H751   1.086       .  S
C750        H752   1.087       .  S
C753        C754   1.343       .  D
C753        H755   1.087       .  S
C754        H756   1.087       .  S
C757        C758   1.341   1_565  D
C757        H759   1.087       .  S
C761        C762   1.343       .  D
C761        H763   1.086       .  S
C762        H764   1.087       .  S
C765        C766   1.341       .  D
C765        H767   1.087       .  S
C766        H768   1.087       .  S
C769        C770   1.343       .  D
C769        H771   1.086       .  S
C770        H772   1.087       .  S
C773        C774   1.348       .  D
C773        H775   1.087   1_565  S
C774        H776   1.086       .  S
C777        C778   1.342       .  D
C778        H780   1.087       .  S
C781        C782   1.344       .  D
C781        H783   1.086       .  S
C782        H784   1.087       .  S
C785        C786   1.341       .  D
C785        H787   1.087       .  S
C786        H788   1.087       .  S
C789        C790   1.344       .  D
C789        H791   1.086       .  S
C790        H792   1.087       .  S
C793       C1227   1.477       .  S
C793        C794   1.345       .  D
C793       H1611   1.087       .  S
C794        H796   1.087       .  S
H795       C1609   1.087       .  S
C797        C798   1.348       .  D
C797        H799   1.087       .  S
C798        H800   1.086       .  S
C801        C802   1.344       .  D
C801        H803   1.087       .  S
C802        H804   1.087       .  S
C805        C806   1.343       .  D
C805        H807   1.087       .  S
C806        H808   1.087       .  S
C809       C1233   1.473       .  S
C809        C810   1.342       .  D
C809       H1627   1.087       .  S
C810        H812   1.087   1_556  S
H811       C1625   1.087   1_455  S
C813        C814   1.345       .  D
C813        H815   1.087       .  S
C814        H816   1.087   1_554  S
O817       Cr835   2.014       .  S
O817        C825   1.266       .  A
O818       Cr835   1.986   1_554  S
O818        C819   1.259       .  A
C819        O820   1.265       .  A
O820       Cr836   2.020   1_554  S
O821       Cr836   1.975       .  S
C822        O823   1.264   1_655  A
C822       C1209   1.467       .  S
O824       Cr837   1.977       .  S
O824        C825   1.257       .  A
O826       Cr835   1.970       .  S
O826        C834   1.260       .  A
O827       Cr835   2.031   1_554  S
O827        C828   1.270       .  A
C828        O829   1.256   1_554  A
C828       C1222   1.474       .  S
O829       Cr836   1.959       .  S
O830       Cr836   2.014       .  S
O830        C831   1.267       .  A
C831        O832   1.259       .  A
C831       C1205   1.470       .  S
O832       Cr837   1.970       .  S
O833       Cr837   2.009       .  S
O833        C834   1.268       .  A
C834       C1213   1.471       .  S
Cr835       O838   1.772       .  S
Cr836       O838   1.768       .  S
Cr837       O838   1.768       .  S
O839       Cr857   2.012       .  S
O839        C847   1.266       .  A
O840       Cr857   1.976       .  S
O840        C841   1.258       .  A
C841        O842   1.263       .  A
C841       C1593   1.473       .  S
O842       Cr858   2.010       .  S
O843       Cr858   1.982       .  S
O843       C1252   1.261       .  A
C844       O1251   1.259   1_545  A
C844        O845   1.265   1_545  A
C844       C1210   1.465       .  S
O845      Cr1267   2.003       .  S
O846       Cr859   1.985       .  S
O846        C847   1.260       .  A
C847       C1598   1.478       .  S
O848       Cr857   1.968       .  S
O848        C856   1.258       .  A
O849       Cr857   2.029       .  S
O849        C850   1.271       .  A
C850        O851   1.256       .  A
C850       C1194   1.478       .  S
O851       Cr858   1.966       .  S
O852       Cr858   1.996       .  S
O852        C853   1.264       .  A
C853        O854   1.262       .  A
C853       C1198   1.468       .  S
O854       Cr859   1.981       .  S
O855       Cr859   2.008       .  S
O855        C856   1.267       .  A
C856       C1214   1.469       .  S
Cr857       O860   1.772       .  S
Cr858       O860   1.767       .  S
Cr859      O1253   1.999       .  S
Cr859       O860   1.769       .  S
O861       Cr879   2.010       .  S
O861        C869   1.268       .  A
O862       Cr879   1.972       .  S
O862        C863   1.259       .  A
C863        O864   1.266       .  A
C863       C1161   1.468       .  S
O864       Cr880   2.017       .  S
O865       Cr880   1.959       .  S
O865        C866   1.256       .  A
C866        O867   1.267       .  A
C866       C1170   1.461       .  S
O867       Cr881   2.005       .  S
O868       Cr881   1.978       .  S
O868        C869   1.258       .  A
C869       C1177   1.479       .  S
O870       Cr879   1.964       .  S
O870        C878   1.259       .  A
O871       Cr879   2.029       .  S
O871        C872   1.269       .  A
C872        O873   1.255       .  A
C872       C1181   1.475       .  S
O873       Cr880   1.959       .  S
O874       Cr880   2.009       .  S
O874        C875   1.266       .  A
C875        O876   1.255       .  A
C875       C1165   1.465       .  S
O876       Cr881   1.965       .  S
O877       Cr881   2.006       .  S
O877        C878   1.265       .  A
C878       C1173   1.464       .  S
Cr879       O882   1.765       .  S
Cr880       O882   1.771       .  S
Cr881       O882   1.770       .  S
O883       Cr901   1.966       .  S
O883        C891   1.255       .  A
O884       Cr901   2.036       .  S
O884        C885   1.274       .  A
C885        O886   1.256       .  A
O886       Cr902   1.958       .  S
O887       Cr902   2.016       .  S
C888        O889   1.252       .  A
C888       C1169   1.461       .  S
O890       Cr903   2.002       .  S
O890        C891   1.261       .  A
O892       Cr901   2.035       .  S
O892        C900   1.272       .  A
O893       Cr901   1.966       .  S
O893        C894   1.256       .  A
C894        O895   1.266       .  A
C894       C1154   1.476       .  S
O895       Cr902   2.015       .  S
O896       Cr902   1.971       .  S
O896        C897   1.260       .  A
C897        O898   1.270       .  A
C897       C1157   1.475       .  S
O898       Cr903   2.022       .  S
O899       Cr903   1.937       .  S
O899        C900   1.256       .  A
C900       C1174   1.478       .  S
Cr901       O904   1.780       .  S
Cr902       O904   1.775       .  S
Cr903       O904   1.766       .  S
O905       Cr923   1.966       .  S
O905       C1321   1.260       .  A
O906       Cr923   2.012       .  S
O906        C907   1.263       .  A
C907        O908   1.261       .  A
C907       C1574   1.473   1_545  S
O908       Cr924   1.985       .  S
O909      Cr1332   1.975       .  S
O909        C910   1.258       .  A
C910        O911   1.268       .  A
C910       C1137   1.467       .  S
O911      Cr1333   2.017       .  S
O912       Cr925   2.018       .  S
O912       C1321   1.266       .  A
C913       O1313   1.266       .  A
C913       O1320   1.262       .  A
C913       C1153   1.475       .  S
O914       Cr923   2.011       .  S
O914        C922   1.265       .  A
O915       Cr923   1.955       .  S
O915        C916   1.257       .  A
C916        O917   1.268       .  A
C916       C1149   1.469       .  S
O917       Cr924   2.019       .  S
O918       Cr924   1.973       .  S
O918        C919   1.260       .  A
C919        O920   1.269       .  A
C919       C1202   1.476       .  S
O920       Cr925   2.017       .  S
O921       Cr925   1.956       .  S
O921        C922   1.257       .  A
C922       C1141   1.468       .  S
Cr923       O926   1.774       .  S
Cr924      O1317   2.007       .  S
Cr924       O926   1.772       .  S
Cr925      O1319   1.978   1_545  S
Cr925       O926   1.772       .  S
O927       Cr945   1.969       .  S
O927        C935   1.262       .  A
O928       Cr945   2.015   1_556  S
O928        C929   1.266       .  A
C929        O930   1.257       .  A
C929       C1197   1.465       .  S
O930       Cr946   1.969   1_556  S
O931       Cr946   2.002       .  S
O931        C932   1.262       .  A
C932        O933   1.257       .  A
C932       C1138   1.468       .  S
O933       Cr947   1.972       .  S
O934       Cr947   2.017       .  S
O934        C935   1.267       .  A
C935       C1221   1.480       .  S
O936       Cr945   1.999       .  S
O936        C944   1.262       .  A
O937       Cr945   1.979       .  S
O937        C938   1.258   1_554  A
C938        O939   1.264       .  A
C938       C1218   1.478       .  S
O939       Cr946   2.011   1_556  S
O940       Cr946   1.973       .  S
O940        C941   1.259       .  A
C941        O942   1.272       .  A
C941       C1146   1.477       .  S
O942       Cr947   2.016       .  S
O943       Cr947   1.966       .  S
O943        C944   1.258       .  A
C944       C1142   1.466       .  S
Cr945       O948   1.776       .  S
Cr946       O948   1.771       .  S
Cr947       O948   1.774       .  S
O949       Cr967   1.988       .  S
O949        C957   1.262       .  A
O950       Cr967   2.015       .  S
O950        C951   1.266       .  A
C951        O952   1.261       .  A
C951       C1206   1.471       .  S
O952       Cr968   1.975       .  S
O953       Cr968   2.009       .  S
O953        C954   1.264       .  A
C954        O955   1.256       .  A
C954       C1129   1.465       .  S
O955       Cr969   1.976       .  S
O956       Cr969   1.999       .  S
O956        C957   1.260       .  A
C957       C1193   1.480       .  S
O958       Cr967   2.015       .  S
O958        C966   1.268       .  A
O959       Cr967   1.989       .  S
O959        C960   1.262       .  A
C960        O961   1.264       .  A
C960       C1189   1.481       .  S
O961       Cr968   2.008       .  S
O962       Cr968   1.988       .  S
O962        C963   1.264       .  A
C963        O964   1.266       .  A
C963       C1125   1.478       .  S
O964       Cr969   2.012       .  S
O965       Cr969   1.955       .  S
O965        C966   1.259       .  A
C966       C1133   1.472       .  S
Cr967       O970   1.781       .  S
Cr968       O970   1.771       .  S
Cr969       O970   1.771       .  S
O971       Cr989   2.014       .  S
O971        C979   1.267       .  A
O972       Cr989   1.970       .  S
O972        C973   1.259       .  A
C973        O974   1.268       .  A
O974       Cr990   2.021       .  S
O975       Cr990   1.975       .  S
C976        O977   1.266       .  A
C976       C1130   1.468       .  S
O978       Cr991   1.982   1_455  S
O978        C979   1.259   1_455  A
O980       Cr989   1.963       .  S
O980        C988   1.258       .  A
O981       Cr989   2.029       .  S
O981        C982   1.268       .  A
C982        O983   1.257       .  A
C982       C1121   1.482       .  S
O983       Cr990   1.972       .  S
O984       Cr990   2.011       .  S
O984        C985   1.266       .  A
C985        O986   1.260       .  A
C985       C1186   1.475       .  S
O986       Cr991   1.979       .  S
O987       Cr991   2.009       .  S
O987        C988   1.267       .  A
C988       C1134   1.466       .  S
Cr989       O992   1.774       .  S
Cr990       O992   1.770       .  S
Cr991       O992   1.767       .  S
O993      Cr1011   1.979       .  S
O994      Cr1011   2.032       .  S
O994        C995   1.274       .  A
C995        O996   1.256       .  A
O996      Cr1012   1.953       .  S
O997        C998   1.264       .  A
C998        O999   1.253       .  A
C998       C1098   1.461       .  S
O1000     Cr1013   2.003       .  S
C1001      C1105   1.483       .  S
O1002     Cr1011   2.026       .  S
O1002      C1010   1.271       .  A
O1003     Cr1011   1.983       .  S
O1003      C1004   1.258       .  A
C1004      O1005   1.265       .  A
C1004      C1109   1.488       .  S
O1005     Cr1012   2.017       .  S
O1006     Cr1012   1.965       .  S
O1006      C1007   1.259       .  A
C1007      O1008   1.269       .  A
C1007      C1162   1.469       .  S
O1008     Cr1013   2.019       .  S
O1009     Cr1013   1.942       .  S
O1009      C1010   1.257       .  A
C1010      C1101   1.475       .  S
Cr1011     O1014   1.779       .  S
Cr1012     O1014   1.777       .  S
Cr1013     O1014   1.770       .  S
O1015     Cr1033   2.012       .  S
O1015      C1431   1.267       .  A
O1016     Cr1033   1.972       .  S
O1016      C1017   1.259       .  A
C1017      O1018   1.266       .  A
C1017      C1566   1.468   1_545  S
O1018     Cr1034   2.019       .  S
O1019     Cr1442   1.960       .  S
O1019      C1020   1.256       .  A
C1020      O1021   1.267       .  A
C1020      C1097   1.463       .  S
O1021     Cr1443   2.006       .  S
O1022     Cr1035   1.991   1_565  S
O1022      C1431   1.263   1_565  A
C1023      O1423   1.267       .  A
C1023      O1430   1.260       .  A
C1023      C1182   1.483       .  S
O1024     Cr1033   1.963       .  S
O1024      C1032   1.258       .  A
O1025     Cr1033   2.024       .  S
O1025      C1026   1.268       .  A
C1026      O1027   1.254       .  A
C1026      C1178   1.473       .  S
O1027     Cr1034   1.959       .  S
O1028     Cr1034   2.014       .  S
O1028      C1029   1.266       .  A
C1029      O1030   1.258       .  A
C1029      C1090   1.477       .  S
O1030     Cr1035   1.979       .  S
O1031     Cr1035   2.004       .  S
O1031      C1032   1.265       .  A
C1032      C1102   1.464       .  S
Cr1033     O1036   1.770       .  S
Cr1034     O1427   1.965   1_545  S
Cr1034     O1036   1.773       .  S
Cr1035     O1429   2.012   1_545  S
Cr1035     O1036   1.769       .  S
O1037     Cr1055   1.966       .  S
O1037      C1045   1.261       .  A
O1038     Cr1055   2.021       .  S
O1038      C1039   1.268       .  A
C1039      O1040   1.260       .  A
C1039      C1534   1.477       .  S
O1040     Cr1056   1.969       .  S
O1041     Cr1056   2.001       .  S
O1041      C1450   1.262       .  A
C1042      O1449   1.263   1_545  A
C1042      O1043   1.258       .  A
C1042      C1081   1.477       .  S
O1043     Cr1465   1.979   1_545  S
O1044     Cr1057   2.024       .  S
O1044      C1045   1.269       .  A
C1045      C1530   1.484       .  S
O1046     Cr1055   2.011       .  S
O1046      C1054   1.265       .  A
O1047     Cr1055   1.981       .  S
O1047      C1048   1.259       .  A
C1048      O1049   1.262       .  A
C1048      C1118   1.473       .  S
O1049     Cr1056   2.002       .  S
O1050     Cr1056   1.973       .  S
O1050      C1051   1.258       .  A
C1051      O1052   1.273       .  A
C1051      C1094   1.480       .  S
O1052     Cr1057   2.023       .  S
O1053     Cr1057   1.973       .  S
O1053      C1054   1.260       .  A
C1054      C1085   1.480       .  S
Cr1055     O1058   1.776       .  S
Cr1056     O1058   1.773       .  S
Cr1057     O1451   1.976       .  S
Cr1057     O1058   1.777       .  S
O1059     Cr1077   2.022       .  S
O1059      C1067   1.268       .  A
O1060     Cr1077   1.981       .  S
O1060      C1061   1.261       .  A
C1061      O1062   1.266       .  A
C1061      C1089   1.477       .  S
O1062     Cr1078   2.016       .  S
O1063     Cr1078   1.986       .  S
O1063      C1064   1.263       .  A
C1064      O1065   1.268       .  A
C1064      C1082   1.480       .  S
O1065     Cr1079   2.020       .  S
O1066     Cr1079   1.991       .  S
O1066      C1067   1.263       .  A
C1067      C1110   1.487       .  S
O1068     Cr1077   1.970       .  S
O1068      C1076   1.258       .  A
O1069     Cr1077   2.026       .  S
O1069      C1070   1.270       .  A
C1070      O1071   1.259       .  A
C1070      C1106   1.482       .  S
O1071     Cr1078   1.977       .  S
O1072     Cr1078   2.016       .  S
O1072      C1073   1.266       .  A
C1073      O1074   1.260       .  A
C1073      C1114   1.476       .  S
O1074     Cr1079   1.980       .  S
O1075     Cr1079   2.015       .  S
O1075      C1076   1.268       .  A
C1076      C1086   1.476       .  S
Cr1077     O1080   1.774       .  S
Cr1078     O1080   1.769       .  S
Cr1079     O1080   1.766       .  S
C1081      C1082   1.347       .  D
C1081      H1083   1.087       .  S
C1082      H1084   1.087       .  S
C1085      C1086   1.345       .  D
C1085      H1087   1.087       .  S
C1086      H1088   1.087       .  S
C1089      C1090   1.344       .  D
C1089      H1091   1.087       .  S
C1090      H1092   1.087       .  S
C1093      C1094   1.339       .  D
C1093      H1095   1.088       .  S
C1094      H1096   1.086       .  S
C1097      C1098   1.336       .  D
C1097      H1099   1.088       .  S
C1098      H1100   1.087       .  S
C1101      C1102   1.347       .  D
C1101      H1103   1.086       .  S
C1102      H1104   1.087       .  S
C1105      C1106   1.344       .  D
C1105      H1107   1.086       .  S
C1106      H1108   1.087       .  S
C1109      C1110   1.350       .  D
C1109      H1111   1.086       .  S
C1110      H1112   1.087       .  S
C1113      C1114   1.347       .  D
C1114      H1116   1.087       .  S
C1117      C1118   1.341       .  D
C1118      H1120   1.087       .  S
C1121      C1122   1.347       .  D
C1121      H1123   1.087   1_545  S
C1122      C1453   1.487   1_545  S
C1122      H1532   1.086       .  S
H1124      C1530   1.086       .  S
C1125      C1126   1.343   1_545  D
C1125      H1127   1.087       .  S
C1126      C1447   1.481       .  S
C1126      H1536   1.086       .  S
H1128      C1534   1.087       .  S
C1129      C1130   1.342       .  D
C1129      H1131   1.086       .  S
C1130      H1132   1.088       .  S
C1133      C1134   1.344       .  D
C1133      H1135   1.087       .  S
C1134      H1136   1.087       .  S
C1137      C1138   1.340       .  D
C1137      H1139   1.087       .  S
C1138      H1140   1.087       .  S
C1141      C1142   1.342       .  D
C1141      H1143   1.087       .  S
C1142      H1144   1.087       .  S
C1145      C1146   1.339       .  D
C1145      H1147   1.087       .  S
C1146      H1148   1.087   1_655  S
C1149      C1150   1.341       .  D
C1149      H1151   1.087   1_655  S
C1153      C1154   1.347       .  D
C1153      H1563   1.087       .  S
C1154      H1156   1.087       .  S
H1155      C1561   1.087       .  S
C1157      C1158   1.345       .  D
C1157      H1159   1.087       .  S
C1158      C1425   1.476       .  S
C1158      H1160   1.087       .  S
C1161      C1162   1.342       .  D
C1161      H1163   1.087       .  S
C1162      H1164   1.087       .  S
C1165      C1166   1.338       .  D
C1165      H1167   1.088       .  S
C1166      C1315   1.465       .  S
C1166      H1576   1.087       .  S
H1168      C1574   1.087   1_545  S
C1169      C1170   1.336       .  D
C1169      H1171   1.087       .  S
C1170      H1172   1.088       .  S
C1173      C1174   1.349       .  D
C1173      H1175   1.087       .  S
C1174      H1176   1.086       .  S
C1177      C1178   1.342       .  D
C1177      H1179   1.086       .  S
C1178      H1180   1.087       .  S
C1181      C1182   1.344       .  D
C1181      H1183   1.087       .  S
C1182      H1184   1.086       .  S
C1185      C1249   1.475       .  S
C1185      C1186   1.345   1_565  D
C1185      H1595   1.087       .  S
C1186      H1188   1.087       .  S
H1187      C1593   1.087       .  S
C1189      C1190   1.346       .  D
C1189      H1191   1.087   1_545  S
C1190      C1255   1.485   1_545  S
C1190      H1192   1.087       .  S
C1193      C1194   1.340       .  D
C1193      H1195   1.087       .  S
C1194      H1196   1.087       .  S
C1197      C1198   1.344       .  D
C1197      H1199   1.087       .  S
C1198      H1200   1.087       .  S
C1201      C1202   1.346   1_455  D
C1202      H1204   1.087       .  S
C1205      C1206   1.341       .  D
C1205      H1207   1.087       .  S
C1206      H1208   1.086       .  S
C1209      C1210   1.344       .  D
C1209      H1211   1.087       .  S
C1210      H1212   1.087       .  S
C1213      C1214   1.342       .  D
C1213      H1215   1.087       .  S
C1214      H1216   1.087       .  S
C1217      C1218   1.345       .  D
C1218      H1220   1.087   1_655  S
C1221      C1222   1.343       .  D
C1221      H1223   1.086       .  S
C1222      H1224   1.088   1_554  S
O1225     Cr1243   1.994       .  S
O1225      C1233   1.261       .  A
O1226     Cr1243   1.984   1_554  S
O1226      C1227   1.261       .  A
C1227      O1228   1.268       .  A
O1228     Cr1244   2.023   1_554  S
O1229     Cr1244   1.978       .  S
C1230      O1231   1.263       .  A
C1230      C1617   1.466       .  S
O1232     Cr1245   1.987       .  S
O1232      C1233   1.258       .  A
O1234     Cr1243   1.974       .  S
O1234      C1242   1.262       .  A
O1235     Cr1243   2.007   1_554  S
O1235      C1236   1.264       .  A
C1236      O1237   1.258   1_554  A
C1236      C1630   1.467       .  S
O1237     Cr1244   1.970       .  S
O1238     Cr1244   2.018       .  S
O1238      C1239   1.268       .  A
C1239      O1240   1.261       .  A
C1239      C1613   1.480       .  S
O1240     Cr1245   1.978       .  S
O1241     Cr1245   2.014       .  S
O1241      C1242   1.270       .  A
C1242      C1621   1.476       .  S
Cr1243     O1246   1.774       .  S
Cr1244     O1246   1.768       .  S
Cr1245     O1246   1.769       .  S
O1247     Cr1265   2.010       .  S
O1247      C1255   1.265       .  A
O1248     Cr1265   1.976       .  S
O1248      C1249   1.259       .  A
C1249      O1250   1.265       .  A
O1250     Cr1266   2.015       .  S
O1251     Cr1266   1.973       .  S
C1252      O1253   1.264       .  A
C1252      C1618   1.469       .  S
O1254     Cr1267   1.993   1_545  S
O1254      C1255   1.261   1_545  A
O1256     Cr1265   1.969       .  S
O1256      C1264   1.260       .  A
O1257     Cr1265   2.023       .  S
O1257      C1258   1.268       .  A
C1258      O1259   1.255       .  A
C1258      C1602   1.468       .  S
O1259     Cr1266   1.960       .  S
O1260     Cr1266   2.008       .  S
O1260      C1261   1.266       .  A
C1261      O1262   1.261       .  A
C1261      C1606   1.474       .  S
O1262     Cr1267   1.980       .  S
O1263     Cr1267   2.014       .  S
O1263      C1264   1.269       .  A
C1264      C1622   1.473       .  S
Cr1265     O1268   1.774       .  S
Cr1266     O1268   1.769       .  S
Cr1267     O1268   1.769       .  S
O1269     Cr1287   2.007       .  S
O1269      C1277   1.267       .  A
O1270     Cr1287   1.976       .  S
O1270      C1271   1.260       .  A
C1271      O1272   1.269       .  A
C1271      C1569   1.486       .  S
O1272     Cr1288   2.028       .  S
O1273     Cr1288   1.981       .  S
O1273      C1274   1.259       .  A
C1274      O1275   1.265       .  A
C1274      C1578   1.470       .  S
O1275     Cr1289   2.008       .  S
O1276     Cr1289   1.978       .  S
O1276      C1277   1.257       .  A
C1277      C1585   1.477       .  S
O1278     Cr1287   1.962       .  S
O1278      C1286   1.257       .  A
O1279     Cr1287   2.019       .  S
O1279      C1280   1.268       .  A
C1280      O1281   1.259       .  A
C1280      C1589   1.482       .  S
O1281     Cr1288   1.976       .  S
O1282     Cr1288   2.023       .  S
O1282      C1283   1.270       .  A
C1283      O1284   1.257       .  A
C1283      C1573   1.473       .  S
O1284     Cr1289   1.964       .  S
O1285     Cr1289   2.015       .  S
O1285      C1286   1.268       .  A
C1286      C1581   1.469       .  S
Cr1287     O1290   1.771       .  S
Cr1288     O1290   1.769       .  S
Cr1289     O1290   1.775       .  S
O1291     Cr1309   1.960       .  S
O1291      C1299   1.259       .  A
O1292     Cr1309   2.022       .  S
O1292      C1293   1.267       .  A
C1293      O1294   1.262       .  A
O1294     Cr1310   1.975       .  S
O1295     Cr1310   2.018       .  S
C1296      O1297   1.258       .  A
C1296      C1577   1.467       .  S
O1298     Cr1311   2.002       .  S
O1298      C1299   1.265       .  A
O1300     Cr1309   2.008       .  S
O1300      C1308   1.263       .  A
O1301     Cr1309   1.959       .  S
O1301      C1302   1.253       .  A
C1302      O1303   1.268       .  A
C1302      C1562   1.464       .  S
O1303     Cr1310   2.027       .  S
O1304     Cr1310   1.973       .  S
O1304      C1305   1.261       .  A
C1305      O1306   1.267       .  A
C1305      C1565   1.469       .  S
O1306     Cr1311   2.008       .  S
O1307     Cr1311   1.966       .  S
O1307      C1308   1.258       .  A
C1308      C1582   1.474       .  S
Cr1309     O1312   1.774       .  S
Cr1310     O1312   1.774       .  S
Cr1311     O1312   1.765       .  S
O1313     Cr1331   2.009       .  S
O1314     Cr1331   1.970       .  S
O1314      C1315   1.259       .  A
C1315      O1316   1.262       .  A
O1316     Cr1332   2.006       .  S
O1317      C1318   1.266   1_545  A
C1318      O1319   1.257       .  A
C1318      C1545   1.475       .  S
O1320     Cr1333   1.985       .  S
C1321      C1561   1.475   1_545  S
O1322     Cr1331   1.961       .  S
O1322      C1330   1.257       .  A
O1323     Cr1331   2.017       .  S
O1323      C1324   1.267       .  A
C1324      O1325   1.257       .  A
C1324      C1557   1.464       .  S
O1325     Cr1332   1.959       .  S
O1326     Cr1332   2.014       .  S
O1326      C1327   1.267       .  A
C1327      O1328   1.261       .  A
C1327      C1610   1.482       .  S
O1328     Cr1333   1.986       .  S
O1329     Cr1333   2.011       .  S
O1329      C1330   1.267       .  A
C1330      C1549   1.466       .  S
Cr1331     O1334   1.768       .  S
Cr1332     O1334   1.765       .  S
Cr1333     O1334   1.764       .  S
O1335     Cr1353   1.954       .  S
O1335      C1343   1.255       .  A
O1336     Cr1353   2.017   1_556  S
O1336      C1337   1.266       .  A
C1337      O1338   1.259   1_556  A
C1337      C1605   1.472       .  S
O1338     Cr1354   1.976       .  S
O1339     Cr1354   2.009       .  S
O1339      C1340   1.266       .  A
C1340      O1341   1.261       .  A
C1340      C1546   1.472       .  S
O1341     Cr1355   1.978       .  S
O1342     Cr1355   2.018       .  S
O1342      C1343   1.265       .  A
C1343      C1629   1.471       .  S
O1344     Cr1353   2.011       .  S
O1344      C1352   1.265       .  A
O1345     Cr1353   1.961       .  S
O1345      C1346   1.253       .  A
C1346      O1347   1.271       .  A
C1346      C1626   1.479   1_554  S
O1347     Cr1354   2.029       .  S
O1348     Cr1354   1.990       .  S
O1348      C1349   1.265       .  A
C1349      O1350   1.268       .  A
C1349      C1554   1.478       .  S
O1350     Cr1355   2.012       .  S
O1351     Cr1355   1.959       .  S
O1351      C1352   1.259       .  A
C1352      C1550   1.471       .  S
Cr1353     O1356   1.774       .  S
Cr1354     O1356   1.768       .  S
Cr1355     O1356   1.772       .  S
O1357     Cr1375   1.969       .  S
O1357      C1365   1.259       .  A
O1358     Cr1375   2.021       .  S
O1358      C1359   1.268       .  A
C1359      O1360   1.261       .  A
C1359      C1614   1.478       .  S
O1360     Cr1376   1.983       .  S
O1361     Cr1376   2.008       .  S
O1361      C1362   1.264       .  A
C1362      O1363   1.255       .  A
C1362      C1537   1.464       .  S
O1363     Cr1377   1.977       .  S
O1364     Cr1377   2.004       .  S
O1364      C1365   1.262       .  A
C1365      C1601   1.474       .  S
O1366     Cr1375   2.020       .  S
O1366      C1374   1.269       .  A
O1367     Cr1375   1.974       .  S
O1367      C1368   1.259       .  A
C1368      O1369   1.265       .  A
C1368      C1597   1.477       .  S
O1369     Cr1376   2.012       .  S
O1370     Cr1376   1.983       .  S
O1370      C1371   1.263       .  A
C1371      O1372   1.267       .  A
C1371      C1533   1.474       .  S
O1372     Cr1377   2.014       .  S
O1373     Cr1377   1.968       .  S
O1373      C1374   1.261       .  A
C1374      C1541   1.479       .  S
Cr1375     O1378   1.772       .  S
Cr1376     O1378   1.769       .  S
Cr1377     O1378   1.772       .  S
O1379     Cr1397   2.020       .  S
O1379      C1387   1.268       .  A
O1380     Cr1397   1.982       .  S
O1380      C1381   1.261       .  A
C1381      O1382   1.266       .  A
O1382     Cr1398   2.015       .  S
O1383     Cr1398   1.963       .  S
C1384      O1385   1.267       .  A
C1384      C1538   1.465       .  S
O1386     Cr1399   1.981       .  S
O1386      C1387   1.259       .  A
O1388     Cr1397   1.972       .  S
O1388      C1396   1.259       .  A
O1389     Cr1397   2.033       .  S
O1389      C1390   1.270       .  A
C1390      O1391   1.256       .  A
C1390      C1529   1.476       .  S
O1391     Cr1398   1.960       .  S
O1392     Cr1398   2.009       .  S
O1392      C1393   1.265       .  A
C1393      O1394   1.259       .  A
C1393      C1594   1.474       .  S
O1394     Cr1399   1.980       .  S
O1395     Cr1399   2.012       .  S
O1395      C1396   1.268       .  A
C1396      C1542   1.475       .  S
Cr1397     O1400   1.772       .  S
Cr1398     O1400   1.769       .  S
Cr1399     O1400   1.767       .  S
O1401     Cr1419   2.019       .  S
O1402     Cr1419   1.972       .  S
O1402      C1403   1.258       .  A
C1403      O1404   1.269       .  A
O1404     Cr1420   2.019       .  S
O1405      C1406   1.266       .  A
C1406      O1407   1.254       .  A
C1406      C1506   1.465       .  S
O1408     Cr1421   1.982   1_455  S
C1409      C1513   1.476       .  S
O1410     Cr1419   1.975       .  S
O1410      C1418   1.257       .  A
O1411     Cr1419   2.019       .  S
O1411      C1412   1.268       .  A
C1412      O1413   1.258       .  A
C1412      C1517   1.483       .  S
O1413     Cr1420   1.975       .  S
O1414     Cr1420   2.036       .  S
O1414      C1415   1.272       .  A
C1415      O1416   1.260       .  A
C1415      C1570   1.481       .  S
O1416     Cr1421   1.973       .  S
O1417     Cr1421   2.003       .  S
O1417      C1418   1.263       .  A
C1418      C1509   1.471       .  S
Cr1419     O1422   1.778       .  S
Cr1420     O1422   1.774       .  S
Cr1421     O1422   1.774       .  S
O1423     Cr1441   2.005       .  S
O1424     Cr1441   1.977       .  S
O1424      C1425   1.259       .  A
C1425      O1426   1.268       .  A
O1426     Cr1442   2.024       .  S
O1427      C1428   1.258       .  A
C1428      O1429   1.268       .  A
C1428      C1505   1.471       .  S
O1430     Cr1443   1.987       .  S
C1431      C1590   1.487   1_545  S
O1432     Cr1441   1.974       .  S
O1432      C1440   1.260       .  A
O1433     Cr1441   2.022       .  S
O1433      C1434   1.268       .  A
C1434      O1435   1.253       .  A
C1434      C1586   1.470       .  S
O1435     Cr1442   1.957       .  S
O1436     Cr1442   2.018       .  S
O1436      C1437   1.268       .  A
C1437      O1438   1.258       .  A
C1437      C1498   1.477       .  S
O1438     Cr1443   1.976       .  S
O1439     Cr1443   2.006       .  S
O1439      C1440   1.267       .  A
C1440      C1510   1.472       .  S
Cr1441     O1444   1.770       .  S
Cr1442     O1444   1.773       .  S
Cr1443     O1444   1.768       .  S
O1445     Cr1463   1.971       .  S
O1445      C1453   1.263       .  A
O1446     Cr1463   2.016       .  S
O1446      C1447   1.265       .  A
C1447      O1448   1.262       .  A
O1448     Cr1464   1.983       .  S
O1449     Cr1464   2.009       .  S
C1450      O1451   1.257       .  A
C1450      C1489   1.469       .  S
O1452     Cr1465   2.028       .  S
O1452      C1453   1.272       .  A
O1454     Cr1463   2.006       .  S
O1454      C1462   1.262       .  A
O1455     Cr1463   1.981       .  S
O1455      C1456   1.260       .  A
C1456      O1457   1.265       .  A
C1456      C1526   1.478       .  S
O1457     Cr1464   2.010       .  S
O1458     Cr1464   1.981       .  S
O1458      C1459   1.260       .  A
C1459      O1460   1.272       .  A
C1459      C1502   1.486       .  S
O1460     Cr1465   2.023       .  S
O1461     Cr1465   1.975       .  S
O1461      C1462   1.258       .  A
C1462      C1493   1.479       .  S
Cr1463     O1466   1.783       .  S
Cr1464     O1466   1.776       .  S
Cr1465     O1466   1.779       .  S
O1467     Cr1485   2.014       .  S
O1467      C1475   1.268       .  A
O1468     Cr1485   1.983       .  S
O1468      C1469   1.261       .  A
C1469      O1470   1.264       .  A
C1469      C1497   1.477       .  S
O1470     Cr1486   2.014       .  S
O1471     Cr1486   1.975       .  S
O1471      C1472   1.260       .  A
C1472      O1473   1.269       .  A
C1472      C1490   1.470       .  S
O1473     Cr1487   2.019       .  S
O1474     Cr1487   1.986       .  S
O1474      C1475   1.261       .  A
C1475      C1518   1.486       .  S
O1476     Cr1485   1.970       .  S
O1476      C1484   1.258       .  A
O1477     Cr1485   2.021       .  S
O1477      C1478   1.270       .  A
C1478      O1479   1.258       .  A
C1478      C1514   1.475       .  S
O1479     Cr1486   1.970       .  S
O1480     Cr1486   2.015       .  S
O1480      C1481   1.266       .  A
C1481      O1482   1.258       .  A
C1481      C1522   1.475       .  S
O1482     Cr1487   1.977       .  S
O1483     Cr1487   2.014       .  S
O1483      C1484   1.268       .  A
C1484      C1494   1.476       .  S
Cr1485     O1488   1.768       .  S
Cr1486     O1488   1.768       .  S
Cr1487     O1488   1.768       .  S
C1489      C1490   1.340       .  D
C1489      H1491   1.087       .  S
C1490      H1492   1.087       .  S
C1493      C1494   1.344       .  D
C1493      H1495   1.087       .  S
C1494      H1496   1.087       .  S
C1497      C1498   1.343       .  D
C1497      H1499   1.087       .  S
C1498      H1500   1.087       .  S
C1501      C1502   1.342       .  D
C1501      H1503   1.087       .  S
C1502      H1504   1.086       .  S
C1505      C1506   1.339       .  D
C1505      H1507   1.088       .  S
C1506      H1508   1.086       .  S
C1509      C1510   1.344       .  D
C1509      H1511   1.087       .  S
C1510      H1512   1.087       .  S
C1513      C1514   1.342       .  D
C1513      H1515   1.087       .  S
C1514      H1516   1.087       .  S
C1517      C1518   1.347       .  D
C1517      H1519   1.087       .  S
C1518      H1520   1.086       .  S
C1521      C1522   1.345       .  D
C1522      H1524   1.087       .  S
C1525      C1526   1.343       .  D
C1526      H1528   1.087       .  S
C1529      C1530   1.345       .  D
C1529      H1531   1.088       .  S
C1533      C1534   1.345       .  D
C1533      H1535   1.087       .  S
C1537      C1538   1.339       .  D
C1537      H1539   1.086       .  S
C1538      H1540   1.088       .  S
C1541      C1542   1.346       .  D
C1541      H1543   1.087       .  S
C1542      H1544   1.087       .  S
C1545      C1546   1.343       .  D
C1545      H1547   1.086       .  S
C1546      H1548   1.087       .  S
C1549      C1550   1.342       .  D
C1549      H1551   1.087       .  S
C1550      H1552   1.087       .  S
C1553      C1554   1.346   1_455  D
C1553      H1555   1.086       .  S
C1554      H1556   1.087       .  S
C1557      C1558   1.344       .  D
C1557      H1559   1.088   1_655  S
C1561      C1562   1.339       .  D
C1562      H1564   1.087       .  S
C1565      C1566   1.341       .  D
C1565      H1567   1.087       .  S
C1566      H1568   1.086   1_565  S
C1569      C1570   1.347       .  D
C1569      H1571   1.086       .  S
C1570      H1572   1.087       .  S
C1573      C1574   1.339       .  D
C1573      H1575   1.087       .  S
C1577      C1578   1.342       .  D
C1577      H1579   1.087       .  S
C1578      H1580   1.087       .  S
C1581      C1582   1.343       .  D
C1581      H1583   1.087       .  S
C1582      H1584   1.087       .  S
C1585      C1586   1.341       .  D
C1585      H1587   1.087       .  S
C1586      H1588   1.087       .  S
C1589      C1590   1.349       .  D
C1589      H1591   1.087   1_565  S
C1590      H1592   1.086       .  S
C1593      C1594   1.344       .  D
C1594      H1596   1.087       .  S
C1597      C1598   1.345       .  D
C1597      H1599   1.087       .  S
C1598      H1600   1.087       .  S
C1601      C1602   1.340       .  D
C1601      H1603   1.087       .  S
C1602      H1604   1.088       .  S
C1605      C1606   1.345       .  D
C1605      H1607   1.086       .  S
C1606      H1608   1.087       .  S
C1609      C1610   1.347   1_455  D
C1610      H1612   1.087       .  S
C1613      C1614   1.345       .  D
C1613      H1615   1.087       .  S
C1614      H1616   1.086       .  S
C1617      C1618   1.345       .  D
C1617      H1619   1.087       .  S
C1618      H1620   1.087       .  S
C1621      C1622   1.344       .  D
C1621      H1623   1.087       .  S
C1622      H1624   1.087       .  S
C1625      C1626   1.337       .  D
C1626      H1628   1.087       .  S
C1629      C1630   1.345       .  D
C1629      H1631   1.086       .  S
C1630      H1632   1.088   1_554  S
