geometry optimzed in LAMMPS
_audit_creation_date              2020-12-01 
_audit_creation_method            'lammps2cif' 
_symmetry_space_group_name_H-M    'P1' 
_symmetry_Int_Tables_number       1 
_symmetry_cell_setting            triclinic 
loop_ 
_symmetry_equiv_pos_as_xyz 
  x,y,z 
_cell_length_a                    52.47089757 
_cell_length_b                    52.34198641462345 
_cell_length_c                    36.98401386920131 
_cell_angle_alpha                 90.39988891728684 
_cell_angle_beta                  89.67875040213275 
_cell_angle_gamma                 120.2511965598957 
loop_ 
_atom_site_label 
_atom_site_type_symbol 
_atom_site_fract_x 
_atom_site_fract_y 
_atom_site_fract_z 
_atom_site_charge 
Fe1        Fe  0.32202287  0.29945419  0.61119195     1.65800
Fe2        Fe  0.39698941  0.33622302  0.60314519     1.73200
Fe3        Fe  0.35553024  0.26699899  0.56899665     1.54400
O4          O  0.31688864  0.23623419  0.59681512    -0.82500
O5          O  0.41117527  0.33763173  0.55093065    -0.80800
O6          O  0.30608108  0.25982599  0.63893643    -0.85000
O7          O  0.30002703  0.27681085  0.56626051    -0.79900
O8          O  0.38084987  0.26259367  0.60693477    -0.81600
O9          O  0.38208311  0.36467051  0.58426147    -0.84400
C10         C  0.30652854  0.27012260  0.53605569     0.96400
C11         C  0.30116006  0.23600601  0.62346403     1.03800
O12         O  0.35842947  0.30088791  0.59530515    -1.13400
O13         O  0.38804328  0.34119634  0.65635979    -0.75800
O14         O  0.33946229  0.32277969  0.65810584    -0.79300
O15         O  0.33044821  0.27057805  0.52973818    -0.80000
C16         C  0.36477664  0.33695538  0.67230360     0.95300
O17         O  0.33308459  0.33712231  0.58295882    -0.77900
O18         O  0.41494796  0.30952291  0.62074699    -0.83100
C19         C  0.41028525  0.31830437  0.52968238     0.97900
C20         C  0.40505687  0.28142327  0.62151967     1.03800
O21         O  0.39276309  0.29097656  0.53567926    -0.78800
C22         C  0.35681171  0.36036998  0.57446434     1.02100
Fe23       Fe  0.31042621  0.31537043  0.87937584     1.65800
Fe24       Fe  0.34748608  0.39001084  0.88824188     1.73200
Fe25       Fe  0.27996042  0.34866332  0.92504864     1.54400
O26         O  0.24861156  0.31055534  0.89732087    -0.82500
O27         O  0.35128302  0.40207468  0.94140098    -0.80800
O28         O  0.27131177  0.30155688  0.85218874    -0.85000
O29         O  0.28744394  0.29230110  0.92376964    -0.79900
O30         O  0.27378291  0.37407792  0.88872408    -0.81600
O31         O  0.37638408  0.37409619  0.90225682    -0.84400
C32         C  0.28261009  0.29915313  0.95486681     0.96400
C33         C  0.24795858  0.29615560  0.86902293     1.03800
O34         O  0.31254092  0.35167264  0.89645529    -1.13400
O35         O  0.34943712  0.38199969  0.83367361    -0.75800
O36         O  0.33417168  0.33389569  0.83298495    -0.79300
O37         O  0.28568598  0.32401432  0.96245248    -0.80000
C38         C  0.34677546  0.35907569  0.81810736     0.95300
O39         O  0.34740571  0.32530974  0.90744114    -0.77900
O40         O  0.32049449  0.40950343  0.87716759    -0.83100
C41         C  0.33281403  0.40177221  0.96347108     0.97900
C42         C  0.29245170  0.39988164  0.87810646     1.03800
O43         O  0.30527542  0.38509756  0.95865149    -0.78800
C44         C  0.37140520  0.34887536  0.91372587     1.02100
Fe45       Fe  0.20326903  0.00992901  0.61268793     1.65800
Fe46       Fe  0.16814247  0.04959144  0.60634593     1.73200
Fe47       Fe  0.23635207  0.07578864  0.56942057     1.54400
O48         O  0.26718193  0.06906291  0.59828197    -0.82500
O49         O  0.16571112  0.06127369  0.55442790    -0.80800
O50         O  0.24343928  0.03362617  0.63917849    -0.85000
O51         O  0.22447376  0.00851289  0.56762863    -0.79900
O52         O  0.24168306  0.10809708  0.60541837    -0.81600
O53         O  0.13843232  0.00587951  0.58862493    -0.84400
C54         C  0.23185017  0.02150105  0.53758153     0.96400
C55         C  0.26722977  0.05320056  0.62441696     1.03800
O56         O  0.20274879  0.04548398  0.59696502    -1.13400
O57         O  0.16500308  0.03729546  0.66022963    -0.75800
O58         O  0.18146901  0.00552681  0.66019468    -0.79300
O59         O  0.23262027  0.04558663  0.53122088    -0.80000
C60         C  0.16908423  0.01802510  0.67556535     0.95300
O61         O  0.16483425  0.48335716  0.58551941    -0.77900
O62         O  0.19523498  0.09483727  0.62139489    -0.83100
C63         C  0.18423684  0.07782478  0.53117640     0.97900
C64         C  0.22297542  0.11386290  0.61952968     1.03800
O65         O  0.21156220  0.08698231  0.53517061    -0.78800
C66         C  0.14196361  0.48457150  0.57792542     1.02100
Fe67       Fe  0.18435726  0.48220547  0.88205864     1.65800
Fe68       Fe  0.11058405  0.44006413  0.88765465     1.73200
Fe69       Fe  0.15369879  0.41866137  0.92841602     1.54400
O70         O  0.18311349  0.41567454  0.89345220    -0.82500
O71         O  0.08957357  0.41531462  0.93403466    -0.80800
O72         O  0.21038839  0.46226249  0.87506703    -0.85000
O73         O  0.20010615  0.49513894  0.93260435    -0.79900
O74         O  0.11929425  0.38331193  0.90140105    -0.81600
O75         O  0.12168674  0.47845751  0.91711835    -0.84400
C76         C  0.20422135  0.47973698  0.95518181     0.96400
C77         C  0.20687088  0.43662523  0.88034107     1.03800
O78         O  0.14969613  0.44646460  0.89883468    -1.13400
O79         O  0.12491108  0.46404990  0.83892952    -0.75800
O80         O  0.16980049  0.47100963  0.83037438    -0.79300
O81         O  0.18874089  0.45169689  0.95645144    -0.80000
C82         C  0.14773586  0.47221416  0.81921215     0.95300
O83         O  0.16401903  0.00748374  0.88951612    -0.77900
O84         O  0.09998152  0.40068901  0.86081027    -0.83100
C85         C  0.09946107  0.41281673  0.96430691     0.97900
C86         C  0.10361702  0.38003651  0.87355190     1.03800
O87         O  0.12606570  0.41948747  0.96743514    -0.78800
C88         C  0.14546192  0.00346997  0.91435547     1.02100
Fe89       Fe  0.48610946  0.18149834  0.61157971     1.65800
Fe90       Fe  0.45177487  0.10630343  0.60574400     1.73200
Fe91       Fe  0.42016095  0.14377899  0.57013647     1.54400
O92         O  0.42473628  0.18091354  0.59906370    -0.82500
O93         O  0.43916904  0.09028542  0.55401950    -0.80800
O94         O  0.46065798  0.19478451  0.63954505    -0.85000
O95         O  0.48430114  0.20289842  0.56709789    -0.79900
O96         O  0.39036626  0.11586965  0.60734944    -0.81600
O97         O  0.49572778  0.12392955  0.58705797    -0.84400
C98         C  0.47121171  0.19590898  0.53707031     0.96400
C99         C  0.44045144  0.19771394  0.62496320     1.03800
O100        O  0.45237365  0.14356790  0.59647147    -1.13400
O101        O  0.46561943  0.11691924  0.65900502    -0.75800
O102        O  0.49347146  0.16582750  0.65841575    -0.79300
O103        O  0.44808069  0.17141337  0.53093302    -0.80000
C104        C  0.48429852  0.14119361  0.67367300     0.95300
O105        O  0.01416022  0.17253520  0.58280366    -0.77900
O106        O  0.40684713  0.08524628  0.62296369    -0.83100
C107        C  0.42141677  0.09070653  0.53147171     0.97900
C108        C  0.38671973  0.09240696  0.62216570     1.03800
O109        O  0.41086387  0.10772975  0.53598486    -0.78800
C110        C  0.01545498  0.14950097  0.57579313     1.02100
Fe111      Fe  0.02599459  0.19857726  0.87686463     1.65800
Fe112      Fe  0.06418660  0.16216133  0.88371689     1.73200
Fe113      Fe  0.09107006  0.23101909  0.92014494     1.54400
O114        O  0.08527248  0.26143688  0.88965560    -0.82500
O115        O  0.07535480  0.15985728  0.93606828    -0.80800
O116        O  0.05024428  0.23744053  0.84819791    -0.85000
O117        O  0.02564346  0.22266419  0.91992337    -0.79900
O118        O  0.12275205  0.23520306  0.88413469    -0.81600
O119        O  0.02048200  0.13312806  0.90034897    -0.84400
C120        C  0.03769526  0.22935154  0.95056198     0.96400
C121        C  0.07012116  0.26134149  0.86266512     1.03800
O122        O  0.06082466  0.19737668  0.89280827    -1.13400
O123        O  0.05203105  0.15844627  0.83016493    -0.75800
O124        O  0.01951963  0.17379975  0.83124145    -0.79300
O125        O  0.06104303  0.22896847  0.95794665    -0.80000
C126        C  0.03152624  0.16093266  0.81584947     0.95300
O127        O  0.50046164  0.16168782  0.90662984    -0.77900
O128        O  0.10889386  0.18855923  0.86788736    -0.83100
C129        C  0.09152322  0.17837085  0.95963994     0.97900
C130        C  0.12776200  0.21635482  0.86884533     1.03800
O131        O  0.10117176  0.20591111  0.95550217    -0.78800
C132        C  0.50029891  0.13779247  0.91247582     1.02100
Fe133      Fe  0.18801717  0.19243327  0.37808850     1.65800
Fe134      Fe  0.15598522  0.22660630  0.41930376     1.73200
Fe135      Fe  0.11340059  0.15681725  0.38835614     1.54400
O136        O  0.12065100  0.15071776  0.33486508    -0.82500
O137        O  0.11826438  0.20414835  0.45193829    -0.80800
O138        O  0.16921160  0.16875734  0.33176625    -0.85000
O139        O  0.17672288  0.15489661  0.40676280    -0.79900
O140        O  0.09556168  0.18364150  0.37158469    -0.81600
O141        O  0.18058130  0.22236808  0.45905231    -0.84400
C142        C  0.15298218  0.13189489  0.41575505     0.96400
C143        C  0.14354476  0.15443977  0.31839568     1.03800
O144        O  0.15227120  0.19197108  0.39422587    -1.13400
O145        O  0.19496704  0.25646393  0.39201894    -0.75800
O146        O  0.20459813  0.23200456  0.34995542    -0.79300
O147        O  0.12776116  0.12789288  0.40651962    -0.80000
C148        C  0.21023819  0.25610562  0.36531060     0.95300
O149        O  0.21051902  0.21508551  0.42270328    -0.77900
O150        O  0.13113668  0.23098253  0.38029300    -0.83100
C151        C  0.10156189  0.17716195  0.46012477     0.97900
C152        C  0.10581500  0.21168028  0.36862636     1.03800
O153        O  0.10160074  0.15709302  0.44126137    -0.78800
C154        C  0.20415884  0.22193144  0.45291607     1.02100
Fe155      Fe  0.19895898  0.17891657  0.11461810     1.65800
Fe156      Fe  0.23102613  0.14900484  0.06564612     1.73200
Fe157      Fe  0.16475059  0.10410417  0.10323206     1.54400
O158        O  0.16200387  0.11102235  0.15798083    -0.82500
O159        O  0.20697949  0.11289863  0.03124312    -0.80800
O160        O  0.17552700  0.15870226  0.16057709    -0.85000
O161        O  0.16124472  0.16785124  0.08721115    -0.79900
O162        O  0.19408490  0.08691873  0.11328159    -0.81600
O163        O  0.22222272  0.17276329  0.03034126    -0.84400
C164        C  0.13823344  0.14374451  0.07926253     0.96400
C165        C  0.16341894  0.13311790  0.17429564     1.07400
O166        O  0.19835887  0.14357848  0.09577234    -1.13400
O167        O  0.26166997  0.18720890  0.09415559    -0.75800
O168        O  0.23901374  0.19409747  0.14109099    -0.79300
O169        O  0.13448195  0.11855202  0.08928655    -0.80000
C170        C  0.26244429  0.20063909  0.12344705     0.95300
O171        O  0.22112732  0.20368269  0.07077738    -0.77900
O172        O  0.23966287  0.12406380  0.09969226    -0.83100
C173        C  0.17987986  0.09384854  0.02742645     0.97900
C174        C  0.22234085  0.09787601  0.11035672     1.03800
O175        O  0.16095611  0.09148592  0.05022293    -0.78800
C176        C  0.22527499  0.19738836  0.03904218     1.02100
Fe177      Fe  0.30909590  0.48195663  0.37715892     1.65800
Fe178      Fe  0.27459757  0.41434676  0.41575462     1.73200
Fe179      Fe  0.34377827  0.44202914  0.38269337     1.54400
O180        O  0.34737532  0.45474376  0.32906086    -0.82500
O181        O  0.29825308  0.40085224  0.44905087    -0.80800
O182        O  0.33248714  0.48785643  0.33036551    -0.85000
O183        O  0.34659937  0.00748400  0.40653110    -0.79900
O184        O  0.31683470  0.39672881  0.36665048    -0.81600
O185        O  0.27772372  0.44248947  0.45610850    -0.84400
C186        C  0.36968738  0.00651078  0.41345092     0.96400
C187        C  0.34418931  0.47483827  0.31443919     1.03800
O188        O  0.30905074  0.44586816  0.39101260    -1.13400
O189        O  0.24490790  0.42308429  0.38775102    -0.75800
O190        O  0.26981261  0.45955633  0.34854579    -0.79300
O191        O  0.37352212  0.48568332  0.40127400    -0.80000
C192        C  0.24562278  0.43987353  0.36237499     0.95300
O193        O  0.28635547  0.48105930  0.42205693    -0.77900
O194        O  0.26985227  0.38446636  0.37680016    -0.83100
C195        C  0.32556947  0.41161865  0.45580751     0.97900
C196        C  0.28889146  0.37824197  0.36520513     1.03800
O197        O  0.34495882  0.43031513  0.43496262    -0.78800
C198        C  0.27837523  0.46668136  0.45123430     1.02100
Fe199      Fe  0.32870679  0.01445990  0.10816014     1.65800
Fe200      Fe  0.36300919  0.07777678  0.06154966     1.73200
Fe201      Fe  0.40282572  0.05409977  0.10475568     1.54400
O202        O  0.38742884  0.02933279  0.15223853    -0.82500
O203        O  0.38938956  0.07340139  0.02373611    -0.80800
O204        O  0.34302244  0.02351540  0.16033253    -0.85000
O205        O  0.34689897  0.48729562  0.09852244    -0.79900
O206        O  0.41296561  0.09268084  0.13232587    -0.81600
O207        O  0.32665457  0.04696509  0.03386834    -0.84400
C208        C  0.36746183  0.49140912  0.07637521     0.96400
C209        C  0.36463206  0.02156714  0.17161751     1.03800
O210        O  0.36449820  0.04903340  0.09201135    -1.13400
O211        O  0.33495242  0.08345136  0.09592165    -0.75800
O212        O  0.30576438  0.03755351  0.11621714    -0.79300
O213        O  0.39167048  0.01604891  0.07540795    -0.80000
C214        C  0.31072171  0.06360151  0.10960860     0.95300
O215        O  0.31168917  0.00280332  0.05775013    -0.77900
O216        O  0.39885498  0.11188234  0.08782867    -0.83100
C217        C  0.41628470  0.08148573  0.02848075     0.97900
C218        C  0.41164014  0.11407607  0.11786058     1.03800
O219        O  0.42534313  0.07975945  0.05954809    -0.78800
C220        C  0.30887434  0.01938256  0.03566032     1.02100
Fe221      Fe  0.48476591  0.29258065  0.11167482     1.65800
Fe222      Fe  0.41882305  0.26170486  0.07053308     1.73200
Fe223      Fe  0.44889605  0.33097148  0.10629149     1.54400
O224        O  0.46077199  0.33360674  0.16034033    -0.82500
O225        O  0.40846546  0.28746923  0.03710834    -0.80800
O226        O  0.49266312  0.31750487  0.15796519    -0.85000
O227        O  0.01126721  0.32907821  0.08185226    -0.79900
O228        O  0.40343956  0.30569218  0.12143458    -0.81600
O229        O  0.44729309  0.26301989  0.03109634    -0.84400
C230        C  0.01298005  0.35388106  0.07756001     0.96400
C231        C  0.48122912  0.33065100  0.17425406     1.03800
O232        O  0.45049529  0.29501227  0.09689359    -1.13400
O233        O  0.42462380  0.23067399  0.09925845    -0.75800
O234        O  0.45973619  0.25441366  0.14057907    -0.79300
O235        O  0.49334399  0.35914822  0.09019163    -0.80000
C236        C  0.43992937  0.23068376  0.12595094     0.95300
O237        O  0.48306560  0.26803693  0.06770821    -0.77900
O238        O  0.38863794  0.25831566  0.10821614    -0.83100
C239        C  0.42022646  0.31510175  0.03149648     0.97900
C240        C  0.38400131  0.27794871  0.12180937     1.03800
O241        O  0.43864709  0.33376137  0.05344827    -0.78800
C242        C  0.47032119  0.26174554  0.03741154     1.02100
Fe243      Fe  0.02426310  0.31235427  0.37879021     1.65800
Fe244      Fe  0.09068215  0.34735069  0.42037887     1.73200
Fe245      Fe  0.06127735  0.38730537  0.38621957     1.54400
O246        O  0.04863576  0.37842146  0.33228376    -0.82500
O247        O  0.10105349  0.38310030  0.45563237    -0.80800
O248        O  0.01765972  0.32982463  0.33232854    -0.85000
O249        O  0.49730282  0.32247634  0.40821332    -0.79900
O250        O  0.10647681  0.40764008  0.37029482    -0.81600
O251        O  0.06221068  0.31960882  0.45911604    -0.84400
C252        C  0.49687967  0.34600578  0.41495853     0.96400
C253        C  0.02876340  0.35489977  0.31729225     1.03800
O254        O  0.05909604  0.34922192  0.39436195    -1.13400
O255        O  0.08466476  0.31019313  0.39037702    -0.75800
O256        O  0.04856251  0.29756279  0.35032903    -0.79300
O257        O  0.01725023  0.37119513  0.40365070    -0.80000
C258        C  0.06849134  0.29382656  0.36447705     0.95300
O259        O  0.02495896  0.28985923  0.42298899    -0.77900
O260        O  0.12132401  0.37535805  0.38369321    -0.83100
C261        C  0.09041898  0.39996643  0.46089810     0.97900
C262        C  0.12594507  0.39960229  0.37012744     1.03800
O263        O  0.07262167  0.40075149  0.43877376    -0.78800
C264        C  0.03830069  0.29586618  0.45288244     1.02100
C265        C  0.47421199  0.33478145  0.24100911    -0.02700
C266        C  0.49297916  0.34287302  0.21068211     0.07000
C267        C  0.02380383  0.36078067  0.21569408    -0.02800
C268        C  0.03593524  0.36698436  0.25078183    -0.02800
C269        C  0.01718306  0.35581500  0.28104414     0.07100
C270        C  0.48639191  0.34215891  0.27598105    -0.03000
Br271      Br  0.46101309  0.33511562  0.31703027    -0.01500
Br272      Br  0.43199301  0.31148713  0.23519255    -0.01600
Br273      Br  0.07810263  0.38988913  0.25712757    -0.01600
Br274      Br  0.04952314  0.37717966  0.17441529    -0.01600
C275        C  0.40879168  0.17901556  0.14881257    -0.02700
C276        C  0.43642598  0.20197613  0.13700186     0.07000
C277        C  0.45888113  0.19548642  0.12817784    -0.02800
C278        C  0.45208865  0.16581368  0.12586546    -0.02800
C279        C  0.42385222  0.14295130  0.13573375     0.07100
C280        C  0.40334012  0.14991436  0.15041581    -0.03000
Br281      Br  0.36605447  0.11857010  0.16805864    -0.01500
Br282      Br  0.37698764  0.18630082  0.15818898    -0.01600
Br283      Br  0.47958836  0.15603066  0.10396655    -0.01600
Br284      Br  0.49761788  0.22648434  0.11389825    -0.01600
C285        C  0.16711269  0.40726343  0.32916106    -0.02700
C286        C  0.15627670  0.41896144  0.35547626     0.07000
C287        C  0.17678379  0.44446379  0.37463049    -0.02800
C288        C  0.20728886  0.45447807  0.37198441    -0.02800
C289        C  0.21719035  0.43796253  0.35213221     0.07100
C290        C  0.19739916  0.41621915  0.32796055    -0.03000
Br291      Br  0.21186354  0.39956400  0.29278276    -0.01500
Br292      Br  0.13992050  0.37912918  0.29502849    -0.01600
Br293      Br  0.23550440  0.49089271  0.39511165    -0.01600
Br294      Br  0.16325068  0.46439843  0.40641128    -0.01600
C295        C  0.33236610  0.46798311  0.24939047    -0.02700
C296        C  0.35306686  0.48326856  0.27672906     0.07000
C297        C  0.37916761  0.01002380  0.26887219    -0.02800
C298        C  0.38385521  0.02215061  0.23391590    -0.02800
C299        C  0.36193671  0.00790464  0.20722481     0.07100
C300        C  0.33642363  0.48038673  0.21487232    -0.03000
Br301      Br  0.30643876  0.45958452  0.17855230    -0.01500
Br302      Br  0.29753981  0.43071584  0.26006353    -0.01600
Br303      Br  0.41902240  0.05938717  0.22374022    -0.01600
Br304      Br  0.40761237  0.03052161  0.30665099    -0.01600
C305        C  0.30355355  0.25297505  0.11537024    -0.02700
C306        C  0.29167605  0.22605864  0.13453856     0.07000
C307        C  0.31009530  0.22225125  0.15879105    -0.02800
C308        C  0.34067423  0.24322874  0.15984476    -0.02800
C309        C  0.35329267  0.26687061  0.13502525     0.07100
C310        C  0.33429489  0.27284299  0.11467771    -0.03000
Br311      Br  0.35047961  0.30637347  0.08266382    -0.01500
Br312      Br  0.27788376  0.26258742  0.08944419    -0.01600
Br313      Br  0.36574902  0.24013189  0.19506547    -0.01600
Br314      Br  0.29370759  0.18769384  0.18896672    -0.01600
C315        C  0.27277593  0.07064933  0.14571357    -0.02700
C316        C  0.28586552  0.06976487  0.11253018     0.07000
C317        C  0.27377496  0.07323048  0.08028499    -0.02800
C318        C  0.24773390  0.07446415  0.08104608    -0.02800
C319        C  0.23708074  0.07983015  0.11363937     0.07100
C320        C  0.25005514  0.07802772  0.14625382    -0.03000
Br321      Br  0.23802404  0.08732611  0.19112324    -0.01500
Br322      Br  0.28750912  0.06420696  0.19012767    -0.01600
Br323      Br  0.22728940  0.06913303  0.03633952    -0.01600
Br324      Br  0.29397435  0.07977589  0.03452627    -0.01600
C325        C  0.23348853  0.30296797  0.32865376    -0.02700
C326        C  0.23633399  0.28494444  0.35431689     0.07000
C327        C  0.26256629  0.29715672  0.37479461    -0.02800
C328        C  0.28258598  0.32799298  0.37480821    -0.02800
C329        C  0.27683657  0.34683984  0.35361211     0.07100
C330        C  0.25331753  0.33379814  0.32863239    -0.03000
Br331      Br  0.24742866  0.35828263  0.29542308    -0.01500
Br332      Br  0.20293835  0.28519298  0.29314185    -0.01600
Br333      Br  0.31588260  0.34449509  0.40709595    -0.01600
Br334      Br  0.27133490  0.27161133  0.40243618    -0.01600
C335        C  0.15460892  0.12462907  0.27527704    -0.02700
C336        C  0.14098414  0.14154344  0.28215997     0.07000
C337        C  0.12800742  0.14842250  0.25353260    -0.02800
C338        C  0.13210480  0.14166896  0.21790583    -0.02800
C339        C  0.15068859  0.12992532  0.21080225     0.07100
C340        C  0.16006613  0.11935384  0.23959858    -0.03000
Br341      Br  0.18184621  0.09938714  0.23062530    -0.01500
Br342      Br  0.16557937  0.10847542  0.31476288    -0.01600
Br343      Br  0.11159021  0.14760459  0.17885753    -0.01600
Br344      Br  0.10688755  0.16919570  0.26250410    -0.01600
C345        C  0.06181612  0.21862869  0.37187433    -0.02700
C346        C  0.08771675  0.22382944  0.35392669     0.07000
C347        C  0.10122976  0.24785481  0.33001225    -0.02800
C348        C  0.09436954  0.27064339  0.33151162    -0.02800
C349        C  0.07122668  0.26769129  0.35378973     0.07100
C350        C  0.05281383  0.23994076  0.37027983    -0.03000
Br351      Br  0.01547781  0.23101861  0.39076644    -0.01500
Br352      Br  0.04009330  0.18363416  0.40074031    -0.01600
Br353      Br  0.11694400  0.30565993  0.30353819    -0.01600
Br354      Br  0.12827698  0.24835056  0.29467152    -0.01600
C355        C  0.11313854  0.17121635  0.05682957    -0.02700
C356        C  0.11733244  0.14649693  0.05397612     0.07000
C357        C  0.10887135  0.13006309  0.02142573    -0.02800
C358        C  0.10149015  0.14084779  0.99060033    -0.02800
C359        C  0.09926681  0.16686128  0.99267412     0.07100
C360        C  0.10346375  0.18080565  0.02684451    -0.03000
Br361      Br  0.09571998  0.21297482  0.03344220    -0.01500
Br362      Br  0.12114848  0.19268625  0.10192048    -0.01600
Br363      Br  0.09757829  0.12069458  0.94502872    -0.01600
Br364      Br  0.10820894  0.09297249  0.01790591    -0.01600
C365        C  0.44910054  0.11568841  0.93677689    -0.02700
C366        C  0.47625953  0.11613492  0.93659983     0.07000
C367        C  0.48230726  0.10213980  0.96517171    -0.02800
C368        C  0.46275402  0.09036862  0.99494869    -0.02800
C369        C  0.43702203  0.09293542  0.99681852     0.07100
C370        C  0.43083301  0.10626330  0.96751717    -0.03000
Br371      Br  0.40047963  0.11693036  0.97083977    -0.01500
Br372      Br  0.43686818  0.12872545  0.89484321    -0.01600
Br373      Br  0.47264759  0.07190746  0.03331800    -0.01600
Br374      Br  0.01794545  0.09987320  0.96502820    -0.01600
C375        C  0.00928502  0.27472815  0.99250459    -0.02700
C376        C  0.48386911  0.25261401  0.00981834     0.07000
C377        C  0.47769354  0.22317667  0.01006759    -0.02800
C378        C  0.49768165  0.21612243  0.99421616    -0.02800
C379        C  0.02319322  0.23827665  0.97709319     0.07100
C380        C  0.02911004  0.26760839  0.97635799    -0.03000
Br381      Br  0.06457927  0.29796328  0.95359759    -0.01500
Br382      Br  0.01680181  0.31474408  0.99124805    -0.01600
Br383      Br  0.49073195  0.17637838  0.99654040    -0.01600
Br384      Br  0.44187174  0.19269687  0.03214741    -0.01600
C385        C  0.49117914  0.12893650  0.77352687    -0.02700
C386        C  0.02124059  0.14964653  0.77924718     0.07000
C387        C  0.03973101  0.16411553  0.74987947    -0.02800
C388        C  0.02773284  0.16021079  0.71515995    -0.02800
C389        C  0.49698752  0.14156871  0.70953076     0.07100
C390        C  0.47886863  0.12515443  0.73880100    -0.03000
Br391      Br  0.43681746  0.10026732  0.73277584    -0.01500
Br392      Br  0.46696363  0.10620355  0.81372931    -0.01600
Br393      Br  0.05406245  0.18170245  0.67611993    -0.01600
Br394      Br  0.08118715  0.19122714  0.75781843    -0.01600
C395        C  0.06779920  0.17973153  0.55157919    -0.02700
C396        C  0.03987914  0.15324022  0.55082489     0.07000
C397        C  0.03361531  0.13361273  0.52128971    -0.02800
C398        C  0.05346342  0.14144538  0.49184496    -0.02800
C399        C  0.08096066  0.16847560  0.49207605     0.07100
C400        C  0.08826252  0.18698208  0.52294524    -0.03000
Br401      Br  0.12652213  0.22258618  0.52699730    -0.01500
Br402      Br  0.07858179  0.20727320  0.59136079    -0.01600
Br403      Br  0.04049998  0.11575842  0.44971940    -0.01600
Br404      Br  0.49646447  0.09684022  0.51852012    -0.01600
C405        C  0.03190047  0.25103633  0.48146599    -0.02700
C406        C  0.02435428  0.27321358  0.48014937     0.07000
C407        C  0.99739729  0.26826356  0.49452490    -0.02800
C408        C  0.47739641  0.24073002  0.50913753    -0.02800
C409        C  0.48464465  0.21833471  0.50958527     0.07100
C410        C  0.51143915  0.22319367  0.49490852    -0.03000
Br411      Br  0.51941127  0.19116425  0.49288697    -0.01500
Br412      Br  0.07016650  0.25891712  0.46507708    -0.01600
Br413      Br  0.44033185  0.23367285  0.52903687    -0.01600
Br414      Br  0.98846006  0.29967129  0.49484493    -0.01600
C415        C  0.40852788  0.07955576  0.46475589    -0.02700
C416        C  0.41270640  0.07033311  0.49903680     0.07000
C417        C  0.40893008  0.04150600  0.50178028    -0.02800
C418        C  0.39887129  0.02184310  0.47180830    -0.02800
C419        C  0.39109920  0.02989718  0.43904154     0.07100
C420        C  0.39761241  0.05946858  0.43526036    -0.03000
Br421      Br  0.39175799  0.07257897  0.38903470    -0.01500
Br422      Br  0.41853426  0.12004542  0.45733780    -0.01600
Br423      Br  0.39463762  0.98330735  0.47678759    -0.01600
Br424      Br  0.41501602  0.02711243  0.54715791    -0.01600
C425        C  0.06144005  0.32849688  0.86403199    -0.02700
C426        C  0.09052596  0.35067778  0.85589554     0.07000
C427        C  0.10997740  0.34257528  0.84038639    -0.02800
C428        C  0.10228840  0.31269714  0.83894474    -0.02800
C429        C  0.07438767  0.29042136  0.85095153     0.07100
C430        C  0.05306006  0.29832479  0.86039583    -0.03000
Br431      Br  0.01342882  0.26813505  0.87268373    -0.01500
Br432      Br  0.03453049  0.33954645  0.88462216    -0.01600
Br433      Br  0.13096499  0.30274559  0.82313814    -0.01600
Br434      Br  0.14846375  0.37292585  0.82453616    -0.01600
C435        C  0.14649052  0.01960797  0.97922395    -0.02700
C436        C  0.15266623  0.02738785  0.94222763     0.07000
C437        C  0.16834652  0.05796826  0.93344656    -0.02800
C438        C  0.17719540  0.07985825  0.96100642    -0.02800
C439        C  0.16991908  0.07159248  0.99750731     0.07100
C440        C  0.15399754  0.04127397  0.00627322    -0.03000
Br441      Br  0.14457217  0.02890485  0.05631074    -0.01500
Br442      Br  0.13188744  0.97972571  0.99495708    -0.01600
Br443      Br  0.19867320  0.12131761  0.94884735    -0.01600
Br444      Br  0.17792331  0.07045002  0.88388779    -0.01600
C445        C  0.22877770  0.48664420  0.01379358    -0.02700
C446        C  0.23064749  0.49418828  0.97723108     0.07000
C447        C  0.25832923  0.50953964  0.95955056    -0.02800
C448        C  0.28388013  0.51544444  0.97801581    -0.02800
C449        C  0.28199172  0.00732536  0.01442615     0.07100
C450        C  0.25438605  0.99297031  0.03247440    -0.03000
Br451      Br  0.25085954  0.98231703  0.08293792    -0.01500
Br452      Br  0.19100137  0.46814002  0.03821279    -0.01600
Br453      Br  0.32136253  0.53301570  0.95291434    -0.01600
Br454      Br  0.26183017  0.52123318  0.90944233    -0.01600
C455        C  0.05623102  0.40794662  0.00157403    -0.02700
C456        C  0.07960619  0.40197046  0.99690806     0.07000
C457        C  0.08411441  0.38568374  0.02414816    -0.02800
C458        C  0.06453300  0.37408248  0.05367871    -0.02800
C459        C  0.03851793  0.37595016  0.05510548     0.07100
C460        C  0.03551121  0.39460226  0.03002694    -0.03000
Br461      Br  0.50292747  0.40174958  0.03338069    -0.01500
Br462      Br  0.05265617  0.43524938  0.96991644    -0.01600
Br463      Br  0.07397390  0.35560111  0.09254254    -0.01600
Br464      Br  0.11539128  0.37631506  0.02058499    -0.01600
C465        C  0.18028656  0.10621170  0.43704756    -0.02700
C466        C  0.15592920  0.11082503  0.44056058     0.07000
C467        C  0.13842144  0.10040580  0.47221059    -0.02800
C468        C  0.14721210  0.08927537  0.50143269    -0.02800
C469        C  0.17310821  0.08695674  0.49899225     0.07100
C470        C  0.18818079  0.09356598  0.46542492    -0.03000
Br471      Br  0.21920012  0.08447826  0.45709901    -0.01500
Br472      Br  0.20459037  0.11873812  0.39410321    -0.01600
Br473      Br  0.12378093  0.07927701  0.54537104    -0.01600
Br474      Br  0.10333074  0.10332389  0.47761473    -0.01600
C475        C  0.33638631  0.04795075  0.61594710    -0.02700
C476        C  0.35646557  0.07268637  0.63648023     0.07000
C477        C  0.34506924  0.08456869  0.66172564    -0.02800
C478        C  0.31523075  0.07723350  0.65993436    -0.02800
C479        C  0.29602013  0.05587783  0.63486515     0.07100
C480        C  0.30604549  0.03886490  0.61630439    -0.03000
Br481      Br  0.27836570  0.00295655  0.59190033    -0.01500
Br482      Br  0.35065145  0.02796473  0.58533918    -0.01600
Br483      Br  0.30100229  0.09638172  0.69156489    -0.01600
Br484      Br  0.37105320  0.11070198  0.69843958    -0.01600
C485        C  0.17602854  0.01320860  0.77573493    -0.02700
C486        C  0.15032030  0.48588324  0.78354695     0.07000
C487        C  0.12875188  0.47144670  0.75653589    -0.02800
C488        C  0.13380218  0.48339702  0.72140549    -0.02800
C489        C  0.16020405  0.00976915  0.71336165     0.07100
C490        C  0.18102642  0.02479183  0.74066723    -0.03000
Br491      Br  0.21775769  0.05992996  0.72906486    -0.01500
Br492      Br  0.20505915  0.03497813  0.81274399    -0.01600
Br493      Br  0.10567122  0.46267001  0.68339460    -0.01600
Br494      Br  0.09371526  0.43407769  0.76651505    -0.01600
C495        C  0.10296999  0.41113068  0.52779786    -0.02700
C496        C  0.09931912  0.42029053  0.49320535     0.07000
C497        C  0.10358440  0.44922018  0.48974303    -0.02800
C498        C  0.11353039  0.46907307  0.51936393    -0.02800
C499        C  0.12055723  0.46104586  0.55265145     0.07100
C500        C  0.11356368  0.43139008  0.55715874    -0.03000
Br501      Br  0.11847649  0.41857285  0.60408981    -0.01500
Br502      Br  0.09299246  0.37072379  0.53566818    -0.01600
Br503      Br  0.11888145  0.50789788  0.51284142    -0.01600
Br504      Br  0.09841425  0.46353146  0.44370156    -0.01600
C505        C  0.22438447  0.47873500  0.50158319    -0.02700
C506        C  0.24258467  0.00871192  0.51119925     0.07000
C507        C  0.27313425  0.02340708  0.50468993    -0.02800
C508        C  0.28561462  0.00771075  0.48974184    -0.02800
C509        C  0.26727487  0.47826791  0.47857066     0.07100
C510        C  0.23670228  0.46358760  0.48460390    -0.03000
Br511      Br  0.21153115  0.42346209  0.46770834    -0.01500
Br512      Br  0.18264615  0.45844544  0.51145745    -0.01600
Br513      Br  0.32785492  0.02586191  0.48575567    -0.01600
Br514      Br  0.29826269  0.06432975  0.51851084    -0.01600
C515        C  0.41187400  0.35338409  0.00001175    -0.02700
C516        C  0.41212119  0.32632904  0.99866252     0.07000
C517        C  0.40482668  0.31046428  0.96554271    -0.02800
C518        C  0.39453497  0.31972097  0.93596313    -0.02800
C519        C  0.39231148  0.34561351  0.93823528     0.07100
C520        C  0.40319443  0.36339937  0.96960808    -0.03000
Br521      Br  0.40485621  0.40100946  0.97249293    -0.01500
Br522      Br  0.42020246  0.37601185  0.04445084    -0.01600
Br523      Br  0.38236540  0.29578062  0.89253841    -0.01600
Br524      Br  0.40873444  0.27580777  0.95981988    -0.01600
C525        C  0.22459479  0.23805274  0.00820630    -0.02700
C526        C  0.23811219  0.22111191  0.01353288     0.07000
C527        C  0.26725699  0.23110420  0.00222095    -0.02800
C528        C  0.28329678  0.25885172  0.98650853    -0.02800
C529        C  0.26979675  0.27581966  0.98103414     0.07100
C530        C  0.24069480  0.26588448  0.99258175    -0.03000
Br531      Br  0.22231302  0.28955986  0.98597255    -0.01500
Br532      Br  0.18366031  0.22235667  0.02077038    -0.01600
Br533      Br  0.32414798  0.27424389  0.97387837    -0.01600
Br534      Br  0.28598209  0.20780108  0.00986962    -0.01600
C535        C  0.20814766  0.24340668  0.87604054    -0.02700
C536        C  0.21906583  0.27075092  0.85813077     0.07000
C537        C  0.20036624  0.27448444  0.83440475    -0.02800
C538        C  0.17057673  0.25197342  0.83129479    -0.02800
C539        C  0.15839620  0.22810383  0.85567007     0.07100
C540        C  0.17765921  0.22291686  0.87649553    -0.03000
Br541      Br  0.16207659  0.18983547  0.90914107    -0.01500
Br542      Br  0.23443894  0.23402278  0.90085864    -0.01600
Br543      Br  0.14686800  0.25221292  0.79230667    -0.01600
Br544      Br  0.21483413  0.31106046  0.80851133    -0.01600
C545        C  0.24221343  0.42685362  0.84256870    -0.02700
C546        C  0.23265382  0.43201077  0.87623157     0.07000
C547        C  0.24796866  0.43239251  0.90759195    -0.02800
C548        C  0.27314576  0.42967694  0.90515256    -0.02800
C549        C  0.27973718  0.41953745  0.87308474     0.07100
C550        C  0.26415545  0.41843312  0.84141533    -0.03000
Br551      Br  0.27179437  0.40402244  0.79720569    -0.01500
Br552      Br  0.22412774  0.42950557  0.79876514    -0.01600
Br553      Br  0.29738024  0.43822526  0.94721122    -0.01600
Br554      Br  0.23267675  0.43202783  0.95507074    -0.01600
C555        C  0.36471298  0.45352855  0.98631668    -0.02700
C556        C  0.34420693  0.42360047  0.99385757     0.07000
C557        C  0.33433875  0.41537939  0.02976263    -0.02800
C558        C  0.34376115  0.43710074  0.05749468    -0.02800
C559        C  0.36211454  0.46754044  0.04934473     0.07100
C560        C  0.37276687  0.47529590  0.01334759    -0.03000
Br561      Br  0.39599131  0.51583398  0.99832506    -0.01500
Br562      Br  0.38046101  0.46577680  0.93780467    -0.01600
Br563      Br  0.33242307  0.42458392  0.10680359    -0.01600
Br564      Br  0.30888689  0.37412724  0.04116075    -0.01600
C565        C  0.37186679  0.39210635  0.51819369    -0.02700
C566        C  0.35375169  0.38120197  0.54926485     0.07000
C567        C  0.32843647  0.38438040  0.55125755    -0.02800
C568        C  0.31982508  0.39522114  0.52152993    -0.02800
C569        C  0.33580405  0.40227776  0.48860325     0.07100
C570        C  0.36253409  0.40145183  0.48772139    -0.03000
Br571      Br  0.38607942  0.41058650  0.44401298    -0.01500
Br572      Br  0.40926358  0.39340822  0.51597765    -0.01600
Br573      Br  0.28611952  0.40059321  0.52677823    -0.01600
Br574      Br  0.30453394  0.37310715  0.59453702    -0.01600
C575        C  0.27063242  0.27630611  0.50161021    -0.02700
C576        C  0.28348135  0.25905341  0.50935067     0.07000
C577        C  0.26873986  0.22872116  0.50130473    -0.02800
C578        C  0.24044618  0.21548918  0.48670222    -0.02800
C579        C  0.22731836  0.23269455  0.47954792     0.07100
C580        C  0.24218093  0.26305969  0.48759252    -0.03000
Br581      Br  0.22495072  0.28715378  0.47641186    -0.01500
Br582      Br  0.29283248  0.31838270  0.50861354    -0.01600
Br583      Br  0.21952573  0.17370241  0.47695092    -0.01600
Br584      Br  0.28641956  0.20496445  0.51222377    -0.01600
C585        C  0.27627539  0.18852269  0.65970621    -0.02700
C586        C  0.27475123  0.20698556  0.63347207     0.07000
C587        C  0.24917462  0.19521200  0.61186248    -0.02800
C588        C  0.22961699  0.16433407  0.61006172    -0.02800
C589        C  0.23487880  0.14515076  0.63123819     0.07100
C590        C  0.25689106  0.15763447  0.65802112    -0.03000
Br591      Br  0.26045659  0.13230109  0.69213294    -0.01500
Br592      Br  0.30195536  0.20575087  0.70023325    -0.01600
Br593      Br  0.19722341  0.14842562  0.57648184    -0.01600
Br594      Br  0.23973267  0.22158845  0.58728612    -0.01600
C595        C  0.37828268  0.33995085  0.73740945    -0.02700
C596        C  0.36659973  0.34866184  0.70912394     0.07000
C597        C  0.35423381  0.36665361  0.71668386    -0.02800
C598        C  0.35056921  0.37310450  0.75265941    -0.02800
C599        C  0.35838856  0.36071861  0.78112172     0.07100
C600        C  0.37433141  0.34615640  0.77333569    -0.03000
Br601      Br  0.39151772  0.33532305  0.81184320    -0.01500
Br602      Br  0.39754410  0.31747193  0.72731500    -0.01600
Br603      Br  0.33407932  0.39804911  0.76251687    -0.01600
Br604      Br  0.34196148  0.38226579  0.67779597    -0.01600
C605        C  0.44909783  0.27428442  0.62305858    -0.02700
C606        C  0.42181741  0.26826539  0.63774807     0.07000
C607        C  0.40555783  0.24207327  0.65772941    -0.02800
C608        C  0.41163382  0.21884095  0.65466290    -0.02800
C609        C  0.43676786  0.22322886  0.63566687     0.07100
C610        C  0.45710974  0.25214866  0.62337311    -0.03000
Br611      Br  0.49520100  0.26118839  0.60522611    -0.01500
Br612      Br  0.47429972  0.31180498  0.60033908    -0.01600
Br613      Br  0.38483601  0.18093493  0.67508280    -0.01600
Br614      Br  0.37470997  0.23852430  0.68873258    -0.01600
C615        C  0.42295629  0.31107957  0.46523966    -0.02700
C616        C  0.43083753  0.32819573  0.49739698     0.07000
C617        C  0.45876681  0.35482339  0.49834361    -0.02800
C618        C  0.47885272  0.36262887  0.46907189    -0.02800
C619        C  0.47247264  0.34319310  0.43930237     0.07100
C620        C  0.44388095  0.31775122  0.43726763    -0.03000
Br621      Br  0.43294551  0.29104851  0.39644967    -0.01500
Br622      Br  0.38286725  0.27928764  0.45789757    -0.01600
Br623      Br  0.01612440  0.39927260  0.47187571    -0.01600
Br624      Br  0.47158221  0.38050338  0.54044927    -0.01600
Fe625      Fe  0.32205506  0.79947348  0.61121327     1.65800
Fe626      Fe  0.39701960  0.83622528  0.60313657     1.73200
Fe627      Fe  0.35553409  0.76700541  0.56897997     1.54400
O628        O  0.31690308  0.73624545  0.59682508    -0.82500
O629        O  0.41119243  0.83763376  0.55091368    -0.80800
O630        O  0.30611388  0.75984318  0.63895949    -0.85000
O631        O  0.30003579  0.77682645  0.56629778    -0.79900
O632        O  0.38086726  0.76259224  0.60688779    -0.81600
O633        O  0.38211840  0.86468198  0.58427250    -0.84400
C634        C  0.30652091  0.77013350  0.53608631     0.96400
C635        C  0.30118539  0.73602025  0.62348609     1.03800
O636        O  0.35845207  0.80089675  0.59530395    -1.13400
O637        O  0.38809209  0.84120370  0.65635978    -0.75800
O638        O  0.33951451  0.82280434  0.65811691    -0.79300
O639        O  0.33043702  0.77058818  0.52974627    -0.80000
C640        C  0.36483169  0.83697722  0.67230710     0.95300
O641        O  0.33311865  0.83714446  0.58297832    -0.77900
O642        O  0.41497182  0.80951481  0.62071840    -0.83100
C643        C  0.41028654  0.81830740  0.52965029     0.97900
C644        C  0.40507606  0.78141407  0.62147496     1.03800
O645        O  0.39275381  0.79097998  0.53563942    -0.78800
C646        C  0.35684850  0.86039024  0.57448301     1.02100
Fe647      Fe  0.31041245  0.81539736  0.87932527     1.65800
Fe648      Fe  0.34748119  0.89003588  0.88821444     1.73200
Fe649      Fe  0.27994848  0.84868763  0.92501055     1.54400
O650        O  0.24859958  0.81059136  0.89726297    -0.82500
O651        O  0.35127433  0.90209352  0.94137483    -0.80800
O652        O  0.27130046  0.80159247  0.85213081    -0.85000
O653        O  0.28741977  0.79232065  0.92370392    -0.79900
O654        O  0.27378346  0.87411835  0.88869867    -0.81600
O655        O  0.37637103  0.87411110  0.90223224    -0.84400
C656        C  0.28257941  0.79916093  0.95480353     0.96400
C657        C  0.24794631  0.79619221  0.86896390     1.03800
O658        O  0.31253044  0.85169848  0.89641674    -1.13400
O659        O  0.34944205  0.88203397  0.83364436    -0.75800
O660        O  0.33417286  0.83392930  0.83294608    -0.79300
O661        O  0.28565510  0.82401947  0.96240491    -0.80000
C662        C  0.34678663  0.85911264  0.81807748     0.95300
O663        O  0.34738443  0.82532494  0.90740248    -0.77900
O664        O  0.32049719  0.90953864  0.87714210    -0.83100
C665        C  0.33280560  0.90178568  0.96344921     0.97900
C666        C  0.29245536  0.89992238  0.87808569     1.03800
O667        O  0.30526644  0.88510948  0.95863190    -0.78800
C668        C  0.37138522  0.84888674  0.91369735     1.02100
Fe669      Fe  0.20325995  0.50992153  0.61270329     1.65800
Fe670      Fe  0.16814967  0.54960430  0.60638966     1.73200
Fe671      Fe  0.23635398  0.57578797  0.56945537     1.54400
O672        O  0.26718137  0.56904778  0.59829801    -0.82500
O673        O  0.16570942  0.56128783  0.55447709    -0.80800
O674        O  0.24343785  0.53360209  0.63918366    -0.85000
O675        O  0.22445286  0.50850106  0.56763526    -0.79900
O676        O  0.24169866  0.60809529  0.60546527    -0.81600
O677        O  0.13842626  0.50589535  0.58866941    -0.84400
C678        C  0.23183262  0.52149549  0.53759238     0.96400
C679        C  0.26722858  0.55317603  0.62442147     1.03800
O680        O  0.20274916  0.54548513  0.59699643    -1.13400
O681        O  0.16501959  0.53730682  0.66026997    -0.75800
O682        O  0.18147117  0.50552571  0.66021606    -0.79300
O683        O  0.23261195  0.54558762  0.53124281    -0.80000
C684        C  0.16909638  0.51803025  0.67559604     0.95300
O685        O  0.16485090  0.98335159  0.58549742    -0.77900
O686        O  0.19525349  0.59485075  0.62143455    -0.83100
C687        C  0.18423925  0.57784139  0.53123068     0.97900
C688        C  0.22299574  0.61387075  0.61957067     1.03800
O689        O  0.21156317  0.58699463  0.53522782    -0.78800
C690        C  0.14197766  0.98455787  0.57789274     1.02100
Fe691      Fe  0.18436821  0.98224728  0.88206315     1.65800
Fe692      Fe  0.11059117  0.94011912  0.88765868     1.73200
Fe693      Fe  0.15369242  0.91869314  0.92840558     1.54400
O694        O  0.18310287  0.91570317  0.89343533    -0.82500
O695        O  0.08957813  0.91536844  0.93403731    -0.80800
O696        O  0.21038799  0.96229343  0.87506130    -0.85000
O697        O  0.20012005  0.99516675  0.93261246    -0.79900
O698        O  0.11928215  0.88335307  0.90138950    -0.81600
O699        O  0.12170798  0.97851570  0.91712757    -0.84400
C700        C  0.20422803  0.97975429  0.95518192     0.96400
C701        C  0.20686442  0.93665324  0.88033055     1.03800
O702        O  0.14969980  0.94650722  0.89883214    -1.13400
O703        O  0.12491852  0.96410141  0.83893203    -0.75800
O704        O  0.16981253  0.97106974  0.83037412    -0.79300
O705        O  0.18873844  0.95171531  0.95644301    -0.80000
C706        C  0.14774101  0.97226259  0.81921128     0.95300
O707        O  0.16399413  0.50743114  0.88950141    -0.77900
O708        O  0.09997345  0.90074121  0.86080875    -0.83100
C709        C  0.09946025  0.91285451  0.96430523     0.97900
C710        C  0.10360414  0.88008386  0.87354391     1.03800
O711        O  0.12606405  0.91952129  0.96743250    -0.78800
C712        C  0.14543563  0.50341488  0.91434070     1.02100
Fe713      Fe  0.48611577  0.68146311  0.61154494     1.65800
Fe714      Fe  0.45177586  0.60626723  0.60570970     1.73200
Fe715      Fe  0.42016349  0.64374424  0.57010260     1.54400
O716        O  0.42474017  0.68088079  0.59901774    -0.82500
O717        O  0.43917447  0.59025415  0.55398247    -0.80800
O718        O  0.46066628  0.69476087  0.63949374    -0.85000
O719        O  0.48431666  0.70285505  0.56705051    -0.79900
O720        O  0.39036998  0.61583913  0.60731977    -0.81600
O721        O  0.49573074  0.62389003  0.58703015    -0.84400
C722        C  0.47121925  0.69586744  0.53702772     0.96400
C723        C  0.44045871  0.69768720  0.62490969     1.03800
O724        O  0.45237786  0.64353341  0.59643632    -1.13400
O725        O  0.46561515  0.61688187  0.65897346    -0.75800
O726        O  0.49346248  0.66579187  0.65839049    -0.79300
O727        O  0.44808143  0.67137579  0.53089617    -0.80000
C728        C  0.48428773  0.64115691  0.67364653     0.95300
O729        O  0.01414690  0.67252667  0.58279015    -0.77900
O730        O  0.40684540  0.58520939  0.62292315    -0.83100
C731        C  0.42141591  0.59067203  0.53144164     0.97900
C732        C  0.38671987  0.59237291  0.62212978     1.03800
O733        O  0.41086091  0.60769224  0.53595953    -0.78800
C734        C  0.01544400  0.64949292  0.57578636     1.02100
Fe735      Fe  0.02598288  0.69862705  0.87687405     1.65800
Fe736      Fe  0.06416548  0.66220325  0.88370687     1.73200
Fe737      Fe  0.09105212  0.73105122  0.92016612     1.54400
O738        O  0.08526325  0.76148008  0.88968232    -0.82500
O739        O  0.07532545  0.65988439  0.93605354    -0.80800
O740        O  0.05024145  0.73749222  0.84821366    -0.85000
O741        O  0.02563564  0.72271348  0.91993575    -0.79900
O742        O  0.12273879  0.73524052  0.88415987    -0.81600
O743        O  0.02045866  0.63317035  0.90033197    -0.84400
C744        C  0.03767767  0.72938258  0.95058038     0.96400
C745        C  0.07011812  0.76139059  0.86268708     1.03800
O746        O  0.06080887  0.69741872  0.89281397    -1.13400
O747        O  0.05201553  0.65850217  0.83015645    -0.75800
O748        O  0.01950062  0.67385022  0.83124629    -0.79300
O749        O  0.06102034  0.72899079  0.95796636    -0.80000
C750        C  0.03150693  0.66098528  0.81584778     0.95300
O751        O  0.50045006  0.66168606  0.90661642    -0.77900
O752        O  0.10887452  0.68860083  0.86788346    -0.83100
C753        C  0.09149014  0.67838697  0.95963604     0.97900
C754        C  0.12774528  0.71639545  0.86885459     1.03800
O755        O  0.10114255  0.70592984  0.95551736    -0.78800
C756        C  0.50029513  0.63779525  0.91246914     1.02100
Fe757      Fe  0.18803971  0.69248287  0.37812614     1.65800
Fe758      Fe  0.15597038  0.72662279  0.41932124     1.73200
Fe759      Fe  0.11341735  0.65682286  0.38835444     1.54400
O760        O  0.12068609  0.65071808  0.33486129    -0.82500
O761        O  0.11824755  0.70414827  0.45193936    -0.80800
O762        O  0.16926135  0.66887299  0.33177654    -0.85000
O763        O  0.17674846  0.65492310  0.40676345    -0.79900
O764        O  0.09556866  0.68362892  0.37155798    -0.81600
O765        O  0.18056879  0.72240265  0.45908441    -0.84400
C766        C  0.15301310  0.63192048  0.41577226     0.96400
C767        C  0.14360527  0.65451294  0.31838767     1.03800
O768        O  0.15227951  0.69199415  0.39424861    -1.13400
O769        O  0.19495442  0.75650416  0.39205920    -0.75800
O770        O  0.20462626  0.73206108  0.35002140    -0.79300
O771        O  0.12778914  0.62791478  0.40654690    -0.80000
C772        C  0.21024483  0.75615546  0.36536881     0.95300
O773        O  0.21051215  0.71510016  0.42276835    -0.77900
O774        O  0.13111784  0.73097841  0.38029633    -0.83100
C775        C  0.10154783  0.67716118  0.46011881     0.97900
C776        C  0.10580782  0.71166536  0.36860813     1.03800
O777        O  0.10159001  0.65709403  0.44125210    -0.78800
C778        C  0.20414287  0.72195319  0.45297006     1.02100
Fe779      Fe  0.19893843  0.67894442  0.11446021     1.65800
Fe780      Fe  0.23099626  0.64899239  0.06553903     1.73200
Fe781      Fe  0.16474597  0.60411492  0.10319759     1.54400
O782        O  0.16207376  0.61112885  0.15793538    -0.82500
O783        O  0.20691743  0.61288871  0.03115804    -0.80800
O784        O  0.17550849  0.65879251  0.16043403    -0.85000
O785        O  0.16122128  0.66784729  0.08705845    -0.79900
O786        O  0.19407845  0.58691614  0.11323374    -0.81600
O787        O  0.22219901  0.67273861  0.03021028    -0.84400
C788        C  0.13820186  0.64372647  0.07917931     0.96400
C789        C  0.16347034  0.63323484  0.17420663     1.07400
O790        O  0.19834022  0.64358739  0.09566820    -1.13400
O791        O  0.26165052  0.68719928  0.09404014    -0.75800
O792        O  0.23899096  0.69413908  0.14093669    -0.79300
O793        O  0.13446289  0.61854779  0.08924784    -0.80000
C794        C  0.26242272  0.70065063  0.12331371     0.95300
O795        O  0.22110572  0.70367846  0.07060931    -0.77900
O796        O  0.23964061  0.62405117  0.09958479    -0.83100
C797        C  0.17982383  0.59380672  0.02738495     0.97900
C798        C  0.22232871  0.59785904  0.11024462     1.03800
O799        O  0.16090899  0.59142258  0.05021184    -0.78800
C800        C  0.22524584  0.69736463  0.03888375     1.02100
Fe801      Fe  0.30913018  0.98197942  0.37717125     1.65800
Fe802      Fe  0.27465146  0.91437739  0.41578051     1.73200
Fe803      Fe  0.34382860  0.94206686  0.38270876     1.54400
O804        O  0.34742444  0.95478346  0.32907551    -0.82500
O805        O  0.29831210  0.90088682  0.44907077    -0.80800
O806        O  0.33252143  0.98788434  0.33037656    -0.85000
O807        O  0.34656447  0.50745148  0.40652260    -0.79900
O808        O  0.31688638  0.89676546  0.36666367    -0.81600
O809        O  0.27778706  0.94252338  0.45613281    -0.84400
C810        C  0.36965032  0.50647298  0.41343653     0.96400
C811        C  0.34423262  0.97487412  0.31445242     1.03800
O812        O  0.30909752  0.94589851  0.39102957    -1.13400
O813        O  0.24495209  0.92310490  0.38778610    -0.75800
O814        O  0.26984423  0.95956523  0.34856309    -0.79300
O815        O  0.37356487  0.98572312  0.40129291    -0.80000
C816        C  0.24565817  0.93988254  0.36240106     0.95300
O817        O  0.28638952  0.98107841  0.42207065    -0.77900
O818        O  0.26990357  0.88449991  0.37682403    -0.83100
C819        C  0.32562870  0.91165757  0.45582749     0.97900
C820        C  0.28894258  0.87827825  0.36522188     1.03800
O821        O  0.34501569  0.93035296  0.43497900    -0.78800
C822        C  0.27842569  0.96670826  0.45125442     1.02100
Fe823      Fe  0.32870384  0.51445898  0.10813903     1.65800
Fe824      Fe  0.36302916  0.57777262  0.06153008     1.73200
Fe825      Fe  0.40282134  0.55408934  0.10476827     1.54400
O826        O  0.38740803  0.52931694  0.15224411    -0.82500
O827        O  0.38939907  0.57336973  0.02373172    -0.80800
O828        O  0.34300690  0.52351474  0.16031904    -0.85000
O829        O  0.34690547  0.98730064  0.09851900    -0.79900
O830        O  0.41294572  0.59266720  0.13233905    -0.81600
O831        O  0.32666304  0.54697358  0.03385758    -0.84400
C832        C  0.36746308  0.99141848  0.07636106     0.96400
C833        C  0.36460726  0.52155376  0.17161376     1.03800
O834        O  0.36450132  0.54902604  0.09200043    -1.13400
O835        O  0.33498769  0.58346372  0.09589462    -0.75800
O836        O  0.30577181  0.53756198  0.11615947    -0.79300
O837        O  0.39167155  0.51603730  0.07542736    -0.80000
C838        C  0.31073872  0.56361059  0.10953630     0.95300
O839        O  0.31169642  0.50280616  0.05772180    -0.77900
O840        O  0.39888173  0.61187456  0.08780176    -0.83100
C841        C  0.41629702  0.58147194  0.02848945     0.97900
C842        C  0.41163279  0.61406425  0.11785847     1.03800
O843        O  0.42535042  0.57975181  0.05956323    -0.78800
C844        C  0.30887760  0.51939301  0.03564702     1.02100
Fe845      Fe  0.48473312  0.79255797  0.11164492     1.65800
Fe846      Fe  0.41879265  0.76169726  0.07050834     1.73200
Fe847      Fe  0.44888047  0.83096564  0.10626418     1.54400
O848        O  0.46076025  0.83359983  0.16031301    -0.82500
O849        O  0.40843743  0.78746762  0.03708889    -0.80800
O850        O  0.49264579  0.81749168  0.15792986    -0.85000
O851        O  0.01123914  0.82906455  0.08183863    -0.79900
O852        O  0.40342302  0.80569474  0.12140568    -0.81600
O853        O  0.44725844  0.76300937  0.03106703    -0.84400
C854        C  0.01295936  0.85387067  0.07754507     0.96400
C855        C  0.48121920  0.83064374  0.17422140     1.03800
O856        O  0.45046890  0.79500086  0.09686651    -1.13400
O857        O  0.42458819  0.73065976  0.09923184    -0.75800
O858        O  0.45969589  0.75439744  0.14055786    -0.79300
O859        O  0.49332974  0.85913084  0.09016261    -0.80000
C860        C  0.43989009  0.73066762  0.12592815     0.95300
O861        O  0.48301911  0.76800364  0.06768285    -0.77900
O862        O  0.38861514  0.75831509  0.10819560    -0.83100
C863        C  0.42020132  0.81510019  0.03147387     0.97900
C864        C  0.38398081  0.77795230  0.12177974     1.03800
O865        O  0.43862872  0.83375938  0.05342114    -0.78800
C866        C  0.47027969  0.76172279  0.03738336     1.02100
Fe867      Fe  0.02427157  0.81234074  0.37875715     1.65800
Fe868      Fe  0.09068826  0.84731916  0.42035061     1.73200
Fe869      Fe  0.06129725  0.88728843  0.38620435     1.54400
O870        O  0.04867252  0.87841914  0.33226475    -0.82500
O871        O  0.10106605  0.88307042  0.45560859    -0.80800
O872        O  0.01767339  0.82982583  0.33230328    -0.85000
O873        O  0.49728906  0.82247501  0.40816359    -0.79900
O874        O  0.10650137  0.90762239  0.37029814    -0.81600
O875        O  0.06221108  0.81957790  0.45908434    -0.84400
C876        C  0.49687134  0.84600695  0.41491195     0.96400
C877        C  0.02879084  0.85490422  0.31727182     1.03800
O878        O  0.05910761  0.84920093  0.39433579    -1.13400
O879        O  0.08466415  0.81016127  0.39033963    -0.75800
O880        O  0.04856844  0.79754809  0.35028665    -0.79300
O881        O  0.01726646  0.87118398  0.40361567    -0.80000
C882        C  0.06849371  0.79380386  0.36443143     0.95300
O883        O  0.02496079  0.78983571  0.42295107    -0.77900
O884        O  0.12133377  0.87532449  0.38366790    -0.83100
C885        C  0.09042656  0.89993189  0.46088240     0.97900
C886        C  0.12596412  0.89957732  0.37011971     1.03800
O887        O  0.07262267  0.90071226  0.43876579    -0.78800
C888        C  0.03829851  0.79583868  0.45284750     1.02100
C889        C  0.47421753  0.83480264  0.24097651    -0.02700
C890        C  0.49297968  0.84287080  0.21064600     0.07000
C891        C  0.02383033  0.86075594  0.21567545    -0.02800
C892        C  0.03596813  0.86695221  0.25075861    -0.02800
C893        C  0.01721778  0.85583368  0.28102670     0.07100
C894        C  0.48640315  0.84218510  0.27594573    -0.03000
Br895      Br  0.46103610  0.83517655  0.31699795    -0.01500
Br896      Br  0.43199583  0.81153025  0.23517100    -0.01600
Br897      Br  0.07814090  0.88977352  0.25709389    -0.01600
Br898      Br  0.04955424  0.87709899  0.17439098    -0.01600
C899        C  0.40875685  0.67899586  0.14879248    -0.02700
C900        C  0.43638905  0.70195993  0.13697880     0.07000
C901        C  0.45884905  0.69547623  0.12815984    -0.02800
C902        C  0.45206458  0.66580603  0.12585600    -0.02800
C903        C  0.42383154  0.64293911  0.13572911     0.07100
C904        C  0.40331147  0.64989588  0.15040360    -0.03000
Br905      Br  0.36602559  0.61854651  0.16805206    -0.01500
Br906      Br  0.37695037  0.68627710  0.15817058    -0.01600
Br907      Br  0.47956967  0.65603081  0.10395410    -0.01600
Br908      Br  0.49758275  0.72647763  0.11387418    -0.01600
C909        C  0.16714500  0.90723590  0.32917899    -0.02700
C910        C  0.15629970  0.91893712  0.35547816     0.07000
C911        C  0.17679957  0.94444656  0.37462719    -0.02800
C912        C  0.20730697  0.95446722  0.37199278    -0.02800
C913        C  0.21721878  0.93795432  0.35215360     0.07100
C914        C  0.19743295  0.91619802  0.32799038    -0.03000
Br915      Br  0.21190344  0.89952404  0.29284691    -0.01500
Br916      Br  0.13996357  0.87908741  0.29505034    -0.01600
Br917      Br  0.23551181  0.99088377  0.39512519    -0.01600
Br918      Br  0.16325305  0.96438303  0.40638517    -0.01600
C919        C  0.33243170  0.96799810  0.24939584    -0.02700
C920        C  0.35311454  0.98330924  0.27674331     0.07000
C921        C  0.37914209  0.50995960  0.26885206    -0.02800
C922        C  0.38383665  0.52209142  0.23389803    -0.02800
C923        C  0.36189828  0.50788089  0.20721921     0.07100
C924        C  0.33648598  0.98039130  0.21487202    -0.03000
Br925      Br  0.30652459  0.95955491  0.17853701    -0.01500
Br926      Br  0.29762715  0.93071377  0.26006381    -0.01600
Br927      Br  0.41905144  0.55928479  0.22371066    -0.01600
Br928      Br  0.40760894  0.53042023  0.30662173    -0.01600
C929        C  0.30354485  0.75298185  0.11525136    -0.02700
C930        C  0.29165545  0.72606188  0.13441296     0.07000
C931        C  0.31005558  0.72224972  0.15869232    -0.02800
C932        C  0.34063332  0.74322732  0.15977927    -0.02800
C933        C  0.35326859  0.76687960  0.13497515     0.07100
C934        C  0.33428499  0.77285755  0.11460520    -0.03000
Br935      Br  0.35049167  0.80640964  0.08262497    -0.01500
Br936      Br  0.27789409  0.76258354  0.08926120    -0.01600
Br937      Br  0.36568571  0.74011306  0.19501918    -0.01600
Br938      Br  0.29364357  0.68768636  0.18886040    -0.01600
C939        C  0.27262784  0.57043179  0.14555037    -0.02700
C940        C  0.28588401  0.56977539  0.11240731     0.07000
C941        C  0.27392524  0.57340521  0.08014595    -0.02800
C942        C  0.24788360  0.57464052  0.08083822    -0.02800
C943        C  0.23707290  0.57980182  0.11343821     0.07100
C944        C  0.24986444  0.57774879  0.14607762    -0.03000
Br945      Br  0.23746019  0.58651473  0.19100423    -0.01500
Br946      Br  0.28721197  0.56377711  0.18995676    -0.01600
Br947      Br  0.22759314  0.56948742  0.03604781    -0.01600
Br948      Br  0.29426557  0.58009112  0.03446539    -0.01600
C949        C  0.23350849  0.80301512  0.32870522    -0.02700
C950        C  0.23634090  0.78499394  0.35438407     0.07000
C951        C  0.26257585  0.79719424  0.37485417    -0.02800
C952        C  0.28261155  0.82802601  0.37485405    -0.02800
C953        C  0.27688478  0.84687608  0.35363321     0.07100
C954        C  0.25336768  0.83383836  0.32865071    -0.03000
Br955      Br  0.24753054  0.85832094  0.29538457    -0.01500
Br956      Br  0.20292709  0.78524882  0.29322744    -0.01600
Br957      Br  0.31589771  0.84452167  0.40715805    -0.01600
Br958      Br  0.27132655  0.77163871  0.40250158    -0.01600
C959        C  0.15512192  0.62508684  0.27522563    -0.02700
C960        C  0.14110844  0.64162798  0.28214863     0.07000
C961        C  0.12785014  0.64819728  0.25354522    -0.02800
C962        C  0.13198224  0.64147561  0.21790540    -0.02800
C963        C  0.15086374  0.63008635  0.21076621     0.07100
C964        C  0.16066625  0.61993220  0.23954962    -0.03000
Br965      Br  0.18329644  0.60086938  0.23055245    -0.01500
Br966      Br  0.16652179  0.60926317  0.31464595    -0.01600
Br967      Br  0.11118081  0.64703506  0.17888612    -0.01600
Br968      Br  0.10627899  0.66850886  0.26254745    -0.01600
C969        C  0.06180891  0.71860600  0.37184794    -0.02700
C970        C  0.08770166  0.72379658  0.35389076     0.07000
C971        C  0.10120538  0.74780576  0.32995435    -0.02800
C972        C  0.09435018  0.77059920  0.33144567    -0.02800
C973        C  0.07121961  0.76766262  0.35373994     0.07100
C974        C  0.05280911  0.73991880  0.37024556    -0.03000
Br975      Br  0.01547732  0.73100398  0.39073781    -0.01500
Br976      Br  0.04009623  0.68362507  0.40073882    -0.01600
Br977      Br  0.11691123  0.80559580  0.30343680    -0.01600
Br978      Br  0.12823116  0.74826431  0.29460204    -0.01600
C979        C  0.11303885  0.67113988  0.05682594    -0.02700
C980        C  0.11726972  0.64644836  0.05392621     0.07000
C981        C  0.10884846  0.63005290  0.02135020    -0.02800
C982        C  0.10146586  0.64085417  0.99054346    -0.02800
C983        C  0.09922505  0.66685683  0.99265589     0.07100
C984        C  0.10338967  0.68076282  0.02684862    -0.03000
Br985      Br  0.09564443  0.71292641  0.03348340    -0.01500
Br986      Br  0.12095620  0.69250541  0.10198708    -0.01600
Br987      Br  0.09757745  0.62074110  0.94494596    -0.01600
Br988      Br  0.10825263  0.59299880  0.01777723    -0.01600
C989        C  0.44910157  0.61568296  0.93678847    -0.02700
C990        C  0.47626611  0.61614078  0.93660647     0.07000
C991        C  0.48233032  0.60216398  0.96518550    -0.02800
C992        C  0.46278673  0.59039781  0.99497188    -0.02800
C993        C  0.43703993  0.59293849  0.99683499     0.07100
C994        C  0.43083877  0.60625534  0.96753228    -0.03000
Br995      Br  0.40047602  0.61690987  0.97086097    -0.01500
Br996      Br  0.43685304  0.62870590  0.89485667    -0.01600
Br997      Br  0.47272004  0.57199237  0.03336929    -0.01600
Br998      Br  0.01791912  0.59987556  0.96496936    -0.01600
C999        C  0.00922191  0.77472311  0.99250115    -0.02700
C1000       C  0.48382741  0.75259210  0.00978882     0.07000
C1001       C  0.47766814  0.72316012  0.01005332    -0.02800
C1002       C  0.49766322  0.71611428  0.99420413    -0.02800
C1003       C  0.02317123  0.73829795  0.97711622     0.07100
C1004       C  0.02906279  0.76762073  0.97636550    -0.03000
Br1005     Br  0.06452480  0.79798901  0.95360791    -0.01500
Br1006     Br  0.01670137  0.81472567  0.99121634    -0.01600
Br1007     Br  0.49073449  0.67637858  0.99654651    -0.01600
Br1008     Br  0.44185872  0.69267632  0.03215183    -0.01600
C1009       C  0.49115051  0.62892680  0.77351275    -0.02700
C1010       C  0.02121242  0.64968937  0.77925045     0.07000
C1011       C  0.03970973  0.66412023  0.74987353    -0.02800
C1012       C  0.02771504  0.66018789  0.71514840    -0.02800
C1013       C  0.49696950  0.64153308  0.70950897     0.07100
C1014       C  0.47884493  0.62513290  0.73878191    -0.03000
Br1015     Br  0.43679483  0.60024651  0.73274817    -0.01500
Br1016     Br  0.46692737  0.60621145  0.81371944    -0.01600
Br1017     Br  0.05405166  0.68160562  0.67608389    -0.01600
Br1018     Br  0.08117110  0.69121652  0.75779944    -0.01600
C1019       C  0.06778756  0.67972366  0.55157633    -0.02700
C1020       C  0.03986784  0.65323248  0.55081946     0.07000
C1021       C  0.03360081  0.63361039  0.52127751    -0.02800
C1022       C  0.05344660  0.64144786  0.49183024    -0.02800
C1023       C  0.08094644  0.66847317  0.49206848     0.07100
C1024       C  0.08825004  0.68697700  0.52294137    -0.03000
Br1025     Br  0.12650657  0.72258561  0.52699352    -0.01500
Br1026     Br  0.07856855  0.70726487  0.59135923    -0.01600
Br1027     Br  0.04047379  0.61578251  0.44968591    -0.01600
Br1028     Br  0.49647019  0.59681596  0.51848029    -0.01600
C1029       C  0.03188676  0.75100687  0.48144177    -0.02700
C1030       C  0.02434444  0.77318646  0.48011462     0.07000
C1031       C  0.99738792  0.76824204  0.49448550    -0.02800
C1032       C  0.47736588  0.74066517  0.50906882    -0.02800
C1033       C  0.48464699  0.71829387  0.50954262     0.07100
C1034       C  0.51145829  0.72318069  0.49488921    -0.03000
Br1035     Br  0.51947769  0.69118235  0.49290809    -0.01500
Br1036     Br  0.07015412  0.75888172  0.46506741    -0.01600
Br1037     Br  0.44028424  0.73357464  0.52894969    -0.01600
Br1038     Br  0.98846007  0.79965611  0.49480165    -0.01600
C1039       C  0.40851608  0.57951983  0.46473114    -0.02700
C1040       C  0.41269776  0.57029715  0.49901020     0.07000
C1041       C  0.40890923  0.54146614  0.50175805    -0.02800
C1042       C  0.39883481  0.52179841  0.47179197    -0.02800
C1043       C  0.39106758  0.52985617  0.43902417     0.07100
C1044       C  0.39759219  0.55943078  0.43523870    -0.03000
Br1045     Br  0.39173949  0.57254236  0.38901269    -0.01500
Br1046     Br  0.41852477  0.62001051  0.45731337    -0.01600
Br1047     Br  0.39456463  0.48324877  0.47678598    -0.01600
Br1048     Br  0.41499734  0.52707520  0.54713658    -0.01600
C1049       C  0.06142821  0.82854370  0.86402722    -0.02700
C1050       C  0.09051114  0.85072710  0.85588257     0.07000
C1051       C  0.10996521  0.84262622  0.84037861    -0.02800
C1052       C  0.10228816  0.81275058  0.83896669    -0.02800
C1053       C  0.07438781  0.79047274  0.85097439     0.07100
C1054       C  0.05305421  0.79837234  0.86040241    -0.03000
Br1055     Br  0.01342235  0.76817986  0.87268409    -0.01500
Br1056     Br  0.03451467  0.83959044  0.88461113    -0.01600
Br1057     Br  0.13098354  0.80281117  0.82320560    -0.01600
Br1058     Br  0.14843995  0.87298068  0.82449550    -0.01600
C1059       C  0.14648383  0.51955968  0.97920878    -0.02700
C1060       C  0.15263332  0.52733335  0.94220788     0.07000
C1061       C  0.16828465  0.55791075  0.93341497    -0.02800
C1062       C  0.17712546  0.57980479  0.96096800    -0.02800
C1063       C  0.16987097  0.57154438  0.99747492     0.07100
C1064       C  0.15399377  0.54122849  0.00625492    -0.03000
Br1065     Br  0.14463619  0.52887185  0.05630329    -0.01500
Br1066     Br  0.13190502  0.47968368  0.99494612    -0.01600
Br1067     Br  0.19857501  0.62126110  0.94879132    -0.01600
Br1068     Br  0.17783057  0.57038039  0.88384799    -0.01600
C1069       C  0.22877862  0.98662375  0.01378940    -0.02700
C1070       C  0.23065375  0.99418841  0.97723350     0.07000
C1071       C  0.25833701  0.00953834  0.95955655    -0.02800
C1072       C  0.28388456  0.01542931  0.97802003    -0.02800
C1073       C  0.28199099  0.50734935  0.01442475     0.07100
C1074       C  0.25438844  0.49300386  0.03247977    -0.03000
Br1075     Br  0.25086929  0.48237291  0.08294989    -0.01500
Br1076     Br  0.19099912  0.96811176  0.03820301    -0.01600
Br1077     Br  0.32136900  0.03300406  0.95292374    -0.01600
Br1078     Br  0.26184476  0.02125714  0.90945787    -0.01600
C1079       C  0.05621804  0.90795745  0.00157179    -0.02700
C1080       C  0.07959853  0.90198976  0.99690063     0.07000
C1081       C  0.08409951  0.88568573  0.02412390    -0.02800
C1082       C  0.06450963  0.87406368  0.05364487    -0.02800
C1083       C  0.03849588  0.87593479  0.05508194     0.07100
C1084       C  0.03549174  0.89459619  0.03001503    -0.03000
Br1085     Br  0.50289053  0.90169723  0.03331824    -0.01500
Br1086     Br  0.05264322  0.93527083  0.96993351    -0.01600
Br1087     Br  0.07394149  0.85555159  0.09248095    -0.01600
Br1088     Br  0.11538251  0.87632601  0.02055042    -0.01600
C1089       C  0.18034047  0.60626300  0.43711589    -0.02700
C1090       C  0.15596733  0.61085769  0.44059255     0.07000
C1091       C  0.13843460  0.60041459  0.47222411    -0.02800
C1092       C  0.14721968  0.58929093  0.50146144    -0.02800
C1093       C  0.17311862  0.58697673  0.49904341     0.07100
C1094       C  0.18820939  0.59359609  0.46549146    -0.03000
Br1095     Br  0.21922241  0.58449309  0.45718483    -0.01500
Br1096     Br  0.20472556  0.61885738  0.39425024    -0.01600
Br1097     Br  0.12377921  0.57929683  0.54539117    -0.01600
Br1098     Br  0.10331313  0.60328493  0.47758475    -0.01600
C1099       C  0.33638031  0.54791823  0.61592050    -0.02700
C1100       C  0.35646555  0.57265507  0.63644831     0.07000
C1101       C  0.34507585  0.58454063  0.66169850    -0.02800
C1102       C  0.31523697  0.57720543  0.65991996    -0.02800
C1103       C  0.29601896  0.55584760  0.63485836     0.07100
C1104       C  0.30603927  0.53883369  0.61628891    -0.03000
Br1105     Br  0.27835261  0.50292810  0.59188423    -0.01500
Br1106     Br  0.35063675  0.52792693  0.58530788    -0.01600
Br1107     Br  0.30101758  0.59635979  0.69155423    -0.01600
Br1108     Br  0.37107066  0.61068333  0.69839812    -0.01600
C1109       C  0.17605193  0.51316750  0.77575197    -0.02700
C1110       C  0.15031367  0.98591353  0.78353619     0.07000
C1111       C  0.12875533  0.97144837  0.75652156    -0.02800
C1112       C  0.13380139  0.98338340  0.72138237    -0.02800
C1113       C  0.16021877  0.50976981  0.71339020     0.07100
C1114       C  0.18105326  0.52476596  0.74069206    -0.03000
Br1115     Br  0.21780212  0.55988759  0.72909146    -0.01500
Br1116     Br  0.20510050  0.53490302  0.81275694    -0.01600
Br1117     Br  0.10568358  0.96262213  0.68337084    -0.01600
Br1118     Br  0.09374059  0.93406444  0.76651227    -0.01600
C1119       C  0.10299338  0.91110770  0.52777724    -0.02700
C1120       C  0.09933003  0.92025955  0.49318614     0.07000
C1121       C  0.10358612  0.94918571  0.48972062    -0.02800
C1122       C  0.11354031  0.96904511  0.51933462    -0.02800
C1123       C  0.12057755  0.96102571  0.55262069     0.07100
C1124       C  0.11359308  0.93137267  0.55713235    -0.03000
Br1125     Br  0.11852873  0.91856624  0.60405958    -0.01500
Br1126     Br  0.09301770  0.87070214  0.53565459    -0.01600
Br1127     Br  0.11889438  0.00787052  0.51280019    -0.01600
Br1128     Br  0.09838630  0.96348285  0.44368420    -0.01600
C1129       C  0.22442133  0.97873902  0.50159473    -0.02700
C1130       C  0.24255900  0.50870338  0.51120169     0.07000
C1131       C  0.27310906  0.52338576  0.50469723    -0.02800
C1132       C  0.28557776  0.50768172  0.48973827    -0.02800
C1133       C  0.26732275  0.97829042  0.47859123     0.07100
C1134       C  0.23675090  0.96359675  0.48463185    -0.03000
Br1135     Br  0.21159626  0.92345842  0.46776830    -0.01500
Br1136     Br  0.18268101  0.95843903  0.51145689    -0.01600
Br1137     Br  0.32781704  0.52581180  0.48576282    -0.01600
Br1138     Br  0.29825436  0.56429853  0.51854712    -0.01600
C1139       C  0.41185589  0.85338816  0.99998519    -0.02700
C1140       C  0.41209257  0.82632731  0.99864041     0.07000
C1141       C  0.40478368  0.81045558  0.96552461    -0.02800
C1142       C  0.39449660  0.81971626  0.93594355    -0.02800
C1143       C  0.39228463  0.84561566  0.93821153     0.07100
C1144       C  0.40317596  0.86340424  0.96958155    -0.03000
Br1145     Br  0.40485109  0.90102111  0.97246160    -0.01500
Br1146     Br  0.42019850  0.87602369  0.04441955    -0.01600
Br1147     Br  0.38231712  0.79577120  0.89252199    -0.01600
Br1148     Br  0.40865919  0.77577955  0.95981023    -0.01600
C1149       C  0.22454000  0.73800329  0.00803525    -0.02700
C1150       C  0.23806738  0.72107126  0.01335581     0.07000
C1151       C  0.26722128  0.73108344  0.00207009    -0.02800
C1152       C  0.28326601  0.75885063  0.98641027    -0.02800
C1153       C  0.26975975  0.77581436  0.98095017     0.07100
C1154       C  0.24064420  0.76585342  0.99245958    -0.03000
Br1155     Br  0.22225584  0.78952441  0.98587515    -0.01500
Br1156     Br  0.18359251  0.72227555  0.02056273    -0.01600
Br1157     Br  0.32413344  0.77427851  0.97384203    -0.01600
Br1158     Br  0.28595363  0.70778463  0.00970015    -0.01600
C1159       C  0.20813870  0.74344211  0.87598473    -0.02700
C1160       C  0.21905134  0.77078613  0.85807557     0.07000
C1161       C  0.20033863  0.77452144  0.83437360    -0.02800
C1162       C  0.17054632  0.75201173  0.83128458    -0.02800
C1163       C  0.15837644  0.72814678  0.85566621     0.07100
C1164       C  0.17764835  0.72296068  0.87647396    -0.03000
Br1165     Br  0.16207911  0.68989641  0.90914478    -0.01500
Br1166     Br  0.23444097  0.73404466  0.90075009    -0.01600
Br1167     Br  0.14681621  0.75224657  0.79231906    -0.01600
Br1168     Br  0.21479286  0.81109780  0.80848637    -0.01600
C1169       C  0.24222823  0.92691119  0.84255814    -0.02700
C1170       C  0.23264585  0.93203545  0.87622415     0.07000
C1171       C  0.24794604  0.93239645  0.90758882    -0.02800
C1172       C  0.27313025  0.92969308  0.90515260    -0.02800
C1173       C  0.27974385  0.91958275  0.87307650     0.07100
C1174       C  0.26417936  0.91850240  0.84140099    -0.03000
Br1175     Br  0.27186154  0.90414862  0.79717406    -0.01500
Br1176     Br  0.22415807  0.92958811  0.79875426    -0.01600
Br1177     Br  0.29734835  0.93822374  0.94722315    -0.01600
Br1178     Br  0.23262850  0.93199126  0.95506402    -0.01600
C1179       C  0.36468613  0.95354587  0.98628540    -0.02700
C1180       C  0.34420038  0.92361410  0.99383505     0.07000
C1181       C  0.33435930  0.91539027  0.02974780    -0.02800
C1182       C  0.34378967  0.93711201  0.05748086    -0.02800
C1183       C  0.36211422  0.96755387  0.04932299     0.07100
C1184       C  0.37273743  0.97531247  0.01331631    -0.03000
Br1185     Br  0.39591334  0.01585086  0.99828342    -0.01500
Br1186     Br  0.38040949  0.96579674  0.93776408    -0.01600
Br1187     Br  0.33251404  0.92459696  0.10680105    -0.01600
Br1188     Br  0.30893705  0.87413534  0.04115309    -0.01600
C1189       C  0.37192568  0.89215891  0.51823597    -0.02700
C1190       C  0.35379499  0.88123222  0.54929183     0.07000
C1191       C  0.32847866  0.88440896  0.55127721    -0.02800
C1192       C  0.31987670  0.89525905  0.52155009    -0.02800
C1193       C  0.33586327  0.90232169  0.48862857     0.07100
C1194       C  0.36259863  0.90150578  0.48775938    -0.03000
Br1195     Br  0.38616116  0.91065829  0.44406442    -0.01500
Br1196     Br  0.40934485  0.89350685  0.51605449    -0.01600
Br1197     Br  0.28617799  0.90064284  0.52679497    -0.01600
Br1198     Br  0.30456813  0.87313190  0.59454958    -0.01600
C1199       C  0.27061752  0.77631931  0.50166142    -0.02700
C1200       C  0.28345957  0.75906033  0.50940185     0.07000
C1201       C  0.26870496  0.72872447  0.50137606    -0.02800
C1202       C  0.24040765  0.71549707  0.48678591    -0.02800
C1203       C  0.22729195  0.73271091  0.47961511     0.07100
C1204       C  0.24216639  0.76307884  0.48764376    -0.03000
Br1205     Br  0.22495722  0.78718526  0.47642692    -0.01500
Br1206     Br  0.29282517  0.81839590  0.50866683    -0.01600
Br1207     Br  0.21946770  0.67370654  0.47706749    -0.01600
Br1208     Br  0.28637145  0.70495741  0.51230930    -0.01600
C1209       C  0.27630459  0.68853692  0.65973840    -0.02700
C1210       C  0.27477745  0.70699939  0.63350498     0.07000
C1211       C  0.24919521  0.69522401  0.61190554    -0.02800
C1212       C  0.22963797  0.66434532  0.61010669    -0.02800
C1213       C  0.23490684  0.64516214  0.63127433     0.07100
C1214       C  0.25692372  0.65764715  0.65805191    -0.03000
Br1215     Br  0.26049343  0.63231265  0.69216036    -0.01500
Br1216     Br  0.30196384  0.70576828  0.70028231    -0.01600
Br1217     Br  0.19723059  0.64843663  0.57654739    -0.01600
Br1218     Br  0.23974039  0.72160102  0.58735412    -0.01600
C1219       C  0.37834357  0.84000288  0.73741793    -0.02700
C1220       C  0.36666234  0.84870269  0.70911889     0.07000
C1221       C  0.35429181  0.86669357  0.71665945    -0.02800
C1222       C  0.35060696  0.87314162  0.75262825    -0.02800
C1223       C  0.35842087  0.86076266  0.78110278     0.07100
C1224       C  0.37437853  0.84621199  0.77333801    -0.03000
Br1225     Br  0.39156334  0.83539861  0.81186738    -0.01500
Br1226     Br  0.39762157  0.81753578  0.72735001    -0.01600
Br1227     Br  0.33409018  0.89806621  0.76246080    -0.01600
Br1228     Br  0.34204195  0.88230941  0.67775306    -0.01600
C1229       C  0.44910810  0.77425984  0.62299918    -0.02700
C1230       C  0.42182924  0.76824373  0.63769084     0.07000
C1231       C  0.40556115  0.74204574  0.65765947    -0.02800
C1232       C  0.41163425  0.71881195  0.65458948    -0.02800
C1233       C  0.43677358  0.72320207  0.63560497     0.07100
C1234       C  0.45711589  0.75212097  0.62330842    -0.03000
Br1235     Br  0.49519795  0.76115255  0.60513609    -0.01500
Br1236     Br  0.47431149  0.81177953  0.60027806    -0.01600
Br1237     Br  0.38481721  0.68089598  0.67497380    -0.01600
Br1238     Br  0.37469414  0.73848376  0.68863609    -0.01600
C1239       C  0.42295153  0.81108048  0.46520050    -0.02700
C1240       C  0.43083388  0.82819919  0.49735710     0.07000
C1241       C  0.45876139  0.85483121  0.49829543    -0.02800
C1242       C  0.47884395  0.86263678  0.46901955    -0.02800
C1243       C  0.47246394  0.84319850  0.43925327     0.07100
C1244       C  0.44387211  0.81775709  0.43722087    -0.03000
Br1245     Br  0.43293131  0.79106661  0.39638940    -0.01500
Br1246     Br  0.38286836  0.77927202  0.45787107    -0.01600
Br1247     Br  0.01612133  0.89928358  0.47181340    -0.01600
Br1248     Br  0.47158272  0.88051907  0.54039419    -0.01600
Fe1249     Fe  0.82202345  0.29944831  0.61119729     1.65800
Fe1250     Fe  0.89699054  0.33620564  0.60315597     1.73200
Fe1251     Fe  0.85552030  0.26698618  0.56899551     1.54400
O1252       O  0.81688130  0.23622535  0.59682418    -0.82500
O1253       O  0.91118195  0.33761460  0.55094581    -0.80800
O1254       O  0.80607945  0.25982092  0.63894752    -0.85000
O1255       O  0.80002136  0.27680162  0.56627154    -0.79900
O1256       O  0.88084080  0.26257502  0.60692151    -0.81600
O1257       O  0.88209230  0.36465840  0.58426821    -0.84400
C1258       C  0.80652032  0.27011450  0.53606482     0.96400
C1259       C  0.80115715  0.23599916  0.62347787     1.03800
O1260       O  0.85842734  0.30087570  0.59531063    -1.13400
O1261       O  0.88804223  0.34118102  0.65636839    -0.75800
O1262       O  0.83946370  0.32277851  0.65810715    -0.79300
O1263       O  0.83043917  0.27057069  0.52974274    -0.80000
C1264       C  0.86477702  0.33694903  0.67230733     0.95300
O1265       O  0.83309275  0.33711568  0.58295723    -0.77900
O1266       O  0.91493990  0.30949780  0.62075994    -0.83100
C1267       C  0.91028277  0.31828793  0.52968895     0.97900
C1268       C  0.90504487  0.28139716  0.62151806     1.03800
O1269       O  0.89274949  0.29096069  0.53567376    -0.78800
C1270       C  0.85682326  0.36036122  0.57446525     1.02100
Fe1271     Fe  0.81041230  0.31537741  0.87937244     1.65800
Fe1272     Fe  0.84748086  0.39001625  0.88823682     1.73200
Fe1273     Fe  0.77992920  0.34868942  0.92497975     1.54400
O1274       O  0.74859012  0.31057704  0.89725523    -0.82500
O1275       O  0.85125048  0.40205911  0.94140156    -0.80800
O1276       O  0.77130670  0.30155795  0.85216292    -0.85000
O1277       O  0.78741839  0.29232302  0.92376986    -0.79900
O1278       O  0.77378282  0.37409996  0.88861278    -0.81600
O1279       O  0.87637015  0.37409572  0.90226794    -0.84400
C1280       C  0.78255894  0.29917770  0.95485293     0.96400
C1281       C  0.74794790  0.29616339  0.86897693     1.03800
O1282       O  0.81252480  0.35168295  0.89643102    -1.13400
O1283       O  0.84944805  0.38200794  0.83367160    -0.75800
O1284       O  0.83416962  0.33389965  0.83298544    -0.79300
O1285       O  0.78561606  0.32403576  0.96241793    -0.80000
C1286       C  0.84678092  0.35908054  0.81810761     0.95300
O1287       O  0.84738383  0.32531197  0.90745486    -0.77900
O1288       O  0.82050821  0.40952606  0.87714021    -0.83100
C1289       C  0.83277367  0.40178161  0.96343868     0.97900
C1290       C  0.79246574  0.39990899  0.87802768     1.03800
O1291       O  0.80523531  0.38513493  0.95857924    -0.78800
C1292       C  0.87138546  0.34887431  0.91374035     1.02100
Fe1293     Fe  0.70326276  0.00990797  0.61267272     1.65800
Fe1294     Fe  0.66814847  0.04958293  0.60634898     1.73200
Fe1295     Fe  0.73635709  0.07577697  0.56942441     1.54400
O1296       O  0.76718236  0.06904244  0.59828117    -0.82500
O1297       O  0.66571652  0.06126581  0.55443226    -0.80800
O1298       O  0.74343458  0.03359502  0.63916422    -0.85000
O1299       O  0.72446369  0.00849374  0.56760932    -0.79900
O1300       O  0.74169317  0.10808243  0.60543095    -0.81600
O1301       O  0.63843013  0.00587294  0.58862890    -0.84400
C1302       C  0.73184491  0.02148855  0.53756666     0.96400
C1303       C  0.76722684  0.05317314  0.62440956     1.03800
O1304       O  0.70275055  0.04546978  0.59696194    -1.13400
O1305       O  0.66501444  0.03728596  0.66023052    -0.75800
O1306       O  0.68146468  0.00550411  0.66018060    -0.79300
O1307       O  0.73262374  0.04557978  0.53121545    -0.80000
C1308       C  0.66908850  0.01800812  0.67555826     0.95300
O1309       O  0.66483907  0.48335380  0.58549916    -0.77900
O1310       O  0.69524535  0.09482827  0.62139801    -0.83100
C1311       C  0.68424394  0.07782071  0.53118510     0.97900
C1312       C  0.72298658  0.11385155  0.61953770     1.03800
O1313       O  0.71156950  0.08697903  0.53518193    -0.78800
C1314       C  0.64196881  0.48456774  0.57790175     1.02100
Fe1315     Fe  0.68437206  0.48224057  0.88206104     1.65800
Fe1316     Fe  0.61060084  0.44008262  0.88764925     1.73200
Fe1317     Fe  0.65372914  0.41868256  0.92838804     1.54400
O1318       O  0.68315036  0.41571372  0.89341105    -0.82500
O1319       O  0.58959797  0.41533161  0.93402953    -0.80800
O1320       O  0.71041994  0.46231377  0.87506714    -0.85000
O1321       O  0.70009454  0.49515838  0.93261851    -0.79900
O1322       O  0.61932871  0.38333546  0.90136906    -0.81600
O1323       O  0.62169809  0.47847264  0.91712242    -0.84400
C1324       C  0.70422279  0.47975891  0.95518530     0.96400
C1325       C  0.70690735  0.43667468  0.88031166     1.03800
O1326       O  0.64971553  0.44648709  0.89881979    -1.13400
O1327       O  0.62492554  0.46406761  0.83892174    -0.75800
O1328       O  0.66983035  0.47106088  0.83036914    -0.79300
O1329       O  0.68876587  0.45171636  0.95643231    -0.80000
C1330       C  0.64775339  0.47224313  0.81920479     0.95300
O1331       O  0.66399280  0.00745390  0.88950359    -0.77900
O1332       O  0.59999523  0.40070784  0.86080085    -0.83100
C1333       C  0.59948750  0.41282725  0.96429685     0.97900
C1334       C  0.60363730  0.38005699  0.87353383     1.03800
O1335       O  0.62609104  0.41949076  0.96741720    -0.78800
C1336       C  0.64543629  0.00342911  0.91434800     1.02100
Fe1337     Fe  0.98609152  0.18147379  0.61154835     1.65800
Fe1338     Fe  0.95177190  0.10627910  0.60571856     1.73200
Fe1339     Fe  0.92015188  0.14374418  0.57009048     1.54400
O1340       O  0.92471300  0.18087320  0.59901646    -0.82500
O1341       O  0.93916240  0.09024837  0.55399643    -0.80800
O1342       O  0.96062914  0.19474738  0.63950619    -0.85000
O1343       O  0.98428531  0.20287292  0.56706441    -0.79900
O1344       O  0.89035308  0.11582832  0.60729615    -0.81600
O1345       O  0.99572480  0.12391289  0.58702970    -0.84400
C1346       C  0.97120247  0.19588138  0.53703290     0.96400
C1347       C  0.94042178  0.19767238  0.62492036     1.03800
O1348       O  0.95236343  0.14353928  0.59643650    -1.13400
O1349       O  0.96562073  0.11690213  0.65898003    -0.75800
O1350       O  0.99345238  0.16581085  0.65838905    -0.79300
O1351       O  0.94807560  0.17138320  0.53089173    -0.80000
C1352       C  0.98429068  0.14118049  0.67364885     0.95300
O1353       O  0.51416931  0.17255182  0.58282577    -0.77900
O1354       O  0.90684547  0.08522035  0.62294252    -0.83100
C1355       C  0.92141824  0.09067356  0.53143812     0.97900
C1356       C  0.88671331  0.09237416  0.62213011     1.03800
O1357       O  0.91086904  0.10770058  0.53594013    -0.78800
C1358       C  0.51545959  0.14951511  0.57581647     1.02100
Fe1359     Fe  0.52600609  0.19858965  0.87688299     1.65800
Fe1360     Fe  0.56418670  0.16216148  0.88373105     1.73200
Fe1361     Fe  0.59107986  0.23101944  0.92016737     1.54400
O1362       O  0.58529003  0.26144763  0.88968451    -0.82500
O1363       O  0.57535260  0.15984977  0.93607913    -0.80800
O1364       O  0.55026124  0.23745777  0.84822609    -0.85000
O1365       O  0.52565493  0.22266920  0.91995092    -0.79900
O1366       O  0.62275745  0.23520009  0.88415351    -0.81600
O1367       O  0.52048136  0.13313160  0.90036370    -0.84400
C1368       C  0.53770853  0.22935604  0.95058888     0.96400
C1369       C  0.57013921  0.26135682  0.86269560     1.03800
O1370       O  0.56083124  0.19738077  0.89282743    -1.13400
O1371       O  0.55203237  0.15844914  0.83018163    -0.75800
O1372       O  0.51953444  0.17381973  0.83125225    -0.79300
O1373       O  0.56105627  0.22897222  0.95797116    -0.80000
C1374       C  0.53153434  0.16094445  0.81586334     0.95300
O1375       O  0.00045843  0.16168060  0.90662260    -0.77900
O1376       O  0.60889295  0.18855627  0.86789756    -0.83100
C1377       C  0.59152136  0.17835925  0.95965312     0.97900
C1378       C  0.62776198  0.21635155  0.86885494     1.03800
O1379       O  0.60117426  0.20590135  0.95552031    -0.78800
C1380       C  0.00030043  0.13778731  0.91246767     1.02100
Fe1381     Fe  0.68801630  0.19243365  0.37810501     1.65800
Fe1382     Fe  0.65597963  0.22660052  0.41931829     1.73200
Fe1383     Fe  0.61339992  0.15681043  0.38837020     1.54400
O1384       O  0.62065220  0.15071413  0.33487527    -0.82500
O1385       O  0.61825646  0.20413958  0.45194806    -0.80800
O1386       O  0.66921408  0.16876321  0.33178133    -0.85000
O1387       O  0.67672609  0.15489669  0.40677576    -0.79900
O1388       O  0.59555782  0.18363337  0.37160431    -0.81600
O1389       O  0.68057157  0.22236130  0.45906997    -0.84400
C1390       C  0.65298722  0.13189250  0.41576580     0.96400
C1391       C  0.64354910  0.15444246  0.31840676     1.03800
O1392       O  0.65226853  0.19196651  0.39424136    -1.13400
O1393       O  0.69496470  0.25646160  0.39203816    -0.75800
O1394       O  0.70459261  0.23200289  0.34997171    -0.79300
O1395       O  0.62776501  0.12788790  0.40653026    -0.80000
C1396       C  0.71023489  0.25610354  0.36532829     0.95300
O1397       O  0.71051370  0.21508342  0.42272339    -0.77900
O1398       O  0.63113330  0.23097561  0.38030518    -0.83100
C1399       C  0.60155771  0.17715316  0.46013930     0.97900
C1400       C  0.60580964  0.21167204  0.36864585     1.03800
O1401       O  0.60159903  0.15708416  0.44127828    -0.78800
C1402       C  0.70414975  0.22192576  0.45293628     1.02100
Fe1403     Fe  0.69893689  0.17890307  0.11460930     1.65800
Fe1404     Fe  0.73099647  0.14901418  0.06558761     1.73200
Fe1405     Fe  0.66474959  0.10408572  0.10324074     1.54400
O1406       O  0.66201579  0.11102228  0.15798879    -0.82500
O1407       O  0.70693694  0.11292040  0.03117421    -0.80800
O1408       O  0.67551051  0.15869324  0.16056927    -0.85000
O1409       O  0.66121852  0.16782438  0.08721171    -0.79900
O1410       O  0.69410518  0.08692549  0.11328787    -0.81600
O1411       O  0.72218153  0.17278325  0.03031234    -0.84400
C1412       C  0.63821219  0.14371182  0.07926603     0.96400
C1413       C  0.66341961  0.13311475  0.17429725     1.07400
O1414       O  0.69834066  0.14356871  0.09574833    -1.13400
O1415       O  0.76164285  0.18720508  0.09411746    -0.75800
O1416       O  0.73899321  0.19408015  0.14107285    -0.79300
O1417       O  0.63447005  0.11852113  0.08928773    -0.80000
C1418       C  0.76242115  0.20062271  0.12342239     0.95300
O1419       O  0.72110142  0.20368831  0.07077865    -0.77900
O1420       O  0.73965785  0.12406873  0.09959019    -0.83100
C1421       C  0.67984728  0.09381975  0.02741023     0.97900
C1422       C  0.72235801  0.09788919  0.11029709     1.03800
O1423       O  0.66093306  0.09141789  0.05024753    -0.78800
C1424       C  0.72524307  0.19740750  0.03903495     1.02100
Fe1425     Fe  0.80909981  0.48194312  0.37716849     1.65800
Fe1426     Fe  0.77461304  0.41433015  0.41575888     1.73200
Fe1427     Fe  0.84379284  0.44202297  0.38268333     1.54400
O1428       O  0.84738505  0.45474436  0.32905331    -0.82500
O1429       O  0.79827782  0.40084531  0.44905064    -0.80800
O1430       O  0.83248345  0.48784665  0.33036800    -0.85000
O1431       O  0.84657517  0.00745212  0.40651633    -0.79900
O1432       O  0.81685309  0.39672250  0.36663687    -0.81600
O1433       O  0.77773451  0.44246947  0.45611657    -0.84400
C1434       C  0.86966460  0.00647825  0.41342507     0.96400
C1435       C  0.84419198  0.47483662  0.31443720     1.03800
O1436       O  0.80906197  0.44585625  0.39101417    -1.13400
O1437       O  0.74491430  0.42305711  0.38776231    -0.75800
O1438       O  0.76981037  0.45953981  0.34856681    -0.79300
O1439       O  0.87353431  0.48567625  0.40126571    -0.80000
C1440       C  0.74562327  0.43984824  0.36239290     0.95300
O1441       O  0.78636636  0.48104373  0.42207380    -0.77900
O1442       O  0.76986975  0.38445110  0.37680089    -0.83100
C1443       C  0.82559527  0.41161330  0.45580166     0.97900
C1444       C  0.78891050  0.37823171  0.36519798     1.03800
O1445       O  0.84498176  0.43030554  0.43495004    -0.78800
C1446       C  0.77838771  0.46666300  0.45124904     1.02100
Fe1447     Fe  0.82870446  0.01447531  0.10814236     1.65800
Fe1448     Fe  0.86304500  0.07779263  0.06154444     1.73200
Fe1449     Fe  0.90282474  0.05407943  0.10475342     1.54400
O1450       O  0.88741584  0.02931154  0.15223025    -0.82500
O1451       O  0.88939725  0.07337460  0.02372846    -0.80800
O1452       O  0.84301937  0.02351964  0.16031528    -0.85000
O1453       O  0.84687446  0.48730779  0.09851313    -0.79900
O1454       O  0.91297643  0.09266280  0.13232841    -0.81600
O1455       O  0.82667045  0.04700782  0.03387656    -0.84400
C1456       C  0.86743560  0.49141213  0.07636594     0.96400
C1457       C  0.86461912  0.02155607  0.17160395     1.03800
O1458       O  0.86450842  0.04903487  0.09200208    -1.13400
O1459       O  0.83501686  0.08349711  0.09593054    -0.75800
O1460       O  0.80579403  0.03759744  0.11620063    -0.79300
O1461       O  0.89165394  0.01602327  0.07541102    -0.80000
C1462       C  0.81077257  0.06365296  0.10959619     0.95300
O1463       O  0.81168221  0.00283448  0.05773118    -0.77900
O1464       O  0.89891412  0.11188391  0.08780626    -0.83100
C1465       C  0.91629208  0.08146113  0.02847524     0.97900
C1466       C  0.91167384  0.11406745  0.11785429     1.03800
O1467       O  0.92534853  0.07973518  0.05954503    -0.78800
C1468       C  0.80887410  0.01942976  0.03566009     1.02100
Fe1469     Fe  0.98475362  0.29256630  0.11166131     1.65800
Fe1470     Fe  0.91880992  0.26168587  0.07052185     1.73200
Fe1471     Fe  0.94887300  0.33094626  0.10629610     1.54400
O1472       O  0.96074734  0.33357207  0.16034392    -0.82500
O1473       O  0.90844670  0.28745215  0.03710624    -0.80800
O1474       O  0.99265414  0.31748970  0.15795645    -0.85000
O1475       O  0.51128787  0.32908992  0.08186301    -0.79900
O1476       O  0.90341748  0.30565863  0.12143521    -0.81600
O1477       O  0.94728121  0.26301276  0.03108024    -0.84400
C1478       C  0.51300360  0.35389290  0.07755856     0.96400
C1479       C  0.98121172  0.33062524  0.17425191     1.03800
O1480       O  0.95047897  0.29499249  0.09688695    -1.13400
O1481       O  0.92461827  0.23065416  0.09923796    -0.75800
O1482       O  0.95972857  0.25439513  0.14056107    -0.79300
O1483       O  0.99331979  0.35913178  0.09020097    -0.80000
C1484       C  0.93992542  0.23066447  0.12592950     0.95300
O1485       O  0.98305438  0.26802766  0.06768888    -0.77900
O1486       O  0.88862338  0.25828512  0.10820934    -0.83100
C1487       C  0.92020493  0.31508559  0.03150079     0.97900
C1488       C  0.88398253  0.27791434  0.12180566     1.03800
O1489       O  0.93862434  0.33374323  0.05345517    -0.78800
C1490       C  0.97030994  0.26173914  0.03739219     1.02100
Fe1491     Fe  0.52425040  0.31235348  0.37879407     1.65800
Fe1492     Fe  0.59067489  0.34734515  0.42036705     1.73200
Fe1493     Fe  0.56127707  0.38730434  0.38621693     1.54400
O1494       O  0.54864744  0.37842317  0.33228235    -0.82500
O1495       O  0.60106449  0.38310842  0.45560413    -0.80800
O1496       O  0.51765316  0.32982805  0.33232934    -0.85000
O1497       O  0.99730820  0.32246648  0.40821221    -0.79900
O1498       O  0.60648040  0.40763595  0.37030218    -0.81600
O1499       O  0.56220645  0.31962113  0.45911668    -0.84400
C1500       C  0.99688358  0.34599391  0.41496869     0.96400
C1501       C  0.52876964  0.35490459  0.31729226     1.03800
O1502       O  0.55908860  0.34921841  0.39435707    -1.13400
O1503       O  0.58464159  0.31017515  0.39038292    -0.75800
O1504       O  0.54853935  0.29754615  0.35033625    -0.79300
O1505       O  0.51724790  0.37120335  0.40363389    -0.80000
C1506       C  0.56846523  0.29380627  0.36448687     0.95300
O1507       O  0.52494645  0.28986533  0.42300157    -0.77900
O1508       O  0.62130903  0.37533372  0.38366289    -0.83100
C1509       C  0.59041822  0.39996284  0.46088363     0.97900
C1510       C  0.62594006  0.39958653  0.37011378     1.03800
O1511       O  0.57260631  0.40073643  0.43877458    -0.78800
C1512       C  0.53829245  0.29587988  0.45289334     1.02100
C1513       C  0.97418922  0.33470962  0.24101182    -0.02700
C1514       C  0.99295640  0.34284343  0.21068290     0.07000
C1515       C  0.52383127  0.36076671  0.21569470    -0.02800
C1516       C  0.53595966  0.36696031  0.25078221    -0.02800
C1517       C  0.51720189  0.35582920  0.28104269     0.07100
C1518       C  0.98636838  0.34209445  0.27598322    -0.03000
Br1519     Br  0.96097606  0.33499272  0.31703235    -0.01500
Br1520     Br  0.93197431  0.31134907  0.23519442    -0.01600
Br1521     Br  0.57813017  0.38979475  0.25713212    -0.01600
Br1522     Br  0.54956426  0.37712027  0.17441952    -0.01600
C1523       C  0.90880191  0.17899203  0.14879462    -0.02700
C1524       C  0.93643052  0.20195854  0.13697581     0.07000
C1525       C  0.95889267  0.19547885  0.12815212    -0.02800
C1526       C  0.95211161  0.16580939  0.12584717    -0.02800
C1527       C  0.92388272  0.14294099  0.13573122     0.07100
C1528       C  0.90336651  0.14989664  0.15041785    -0.03000
Br1529     Br  0.86609648  0.11854763  0.16809645    -0.01500
Br1530     Br  0.87698270  0.18625751  0.15815193    -0.01600
Br1531     Br  0.97961516  0.15603643  0.10393740    -0.01600
Br1532     Br  0.99762289  0.22648410  0.11386290    -0.01600
C1533       C  0.66711025  0.40722493  0.32916922    -0.02700
C1534       C  0.65627313  0.41894012  0.35546010     0.07000
C1535       C  0.67678095  0.44445068  0.37460055    -0.02800
C1536       C  0.70728569  0.45445541  0.37197187    -0.02800
C1537       C  0.71718524  0.43792434  0.35214820     0.07100
C1538       C  0.69739274  0.41616431  0.32799348    -0.03000
Br1539     Br  0.71184494  0.39944577  0.29288655    -0.01500
Br1540     Br  0.63992570  0.37909618  0.29502724    -0.01600
Br1541     Br  0.73550169  0.49087052  0.39509792    -0.01600
Br1542     Br  0.66324702  0.46441410  0.40633188    -0.01600
C1543       C  0.83234945  0.46800625  0.24939471    -0.02700
C1544       C  0.85306449  0.48327068  0.27672665     0.07000
C1545       C  0.87915089  0.00998068  0.26884654    -0.02800
C1546       C  0.88384275  0.02211257  0.23389324    -0.02800
C1547       C  0.86191202  0.00788953  0.20720999     0.07100
C1548       C  0.83641771  0.48040924  0.21487546    -0.03000
Br1549     Br  0.80642799  0.45962272  0.17855560    -0.01500
Br1550     Br  0.79748568  0.43077351  0.26008092    -0.01600
Br1551     Br  0.91903515  0.05932754  0.22371382    -0.01600
Br1552     Br  0.90761728  0.03044611  0.30661501    -0.01600
C1553       C  0.80353760  0.25295402  0.11536521    -0.02700
C1554       C  0.79165467  0.22603257  0.13452189     0.07000
C1555       C  0.81006892  0.22221226  0.15876855    -0.02800
C1556       C  0.84064913  0.24318391  0.15982636    -0.02800
C1557       C  0.85327248  0.26683254  0.13501620     0.07100
C1558       C  0.83427962  0.27281499  0.11467342    -0.03000
Br1559     Br  0.85047009  0.30634635  0.08266112    -0.01500
Br1560     Br  0.77787289  0.26258296  0.08945619    -0.01600
Br1561     Br  0.86571782  0.24006871  0.19503965    -0.01600
Br1562     Br  0.79367233  0.18764691  0.18893162    -0.01600
C1563       C  0.77276296  0.07062259  0.14565710    -0.02700
C1564       C  0.78592557  0.06982970  0.11249322     0.07000
C1565       C  0.77389822  0.07336748  0.08023655    -0.02800
C1566       C  0.74785432  0.07459603  0.08095775    -0.02800
C1567       C  0.73712111  0.07986270  0.11355209     0.07100
C1568       C  0.75002256  0.07797306  0.14618270    -0.03000
Br1569     Br  0.73785883  0.08710355  0.19106347    -0.01500
Br1570     Br  0.78743124  0.06410172  0.19007580    -0.01600
Br1571     Br  0.72751419  0.06939624  0.03619422    -0.01600
Br1572     Br  0.79417521  0.07999241  0.03452073    -0.01600
C1573       C  0.73350777  0.30295977  0.32865159    -0.02700
C1574       C  0.73633567  0.28493957  0.35433717     0.07000
C1575       C  0.76256345  0.29714768  0.37482284    -0.02800
C1576       C  0.78258920  0.32798194  0.37483304    -0.02800
C1577       C  0.77685921  0.34682894  0.35361043     0.07100
C1578       C  0.75335441  0.33378705  0.32861160    -0.03000
Br1579     Br  0.74752442  0.35826868  0.29533460    -0.01500
Br1580     Br  0.70295858  0.28518446  0.29313635    -0.01600
Br1581     Br  0.81586949  0.34448303  0.40714580    -0.01600
Br1582     Br  0.77132354  0.27159819  0.40246814    -0.01600
C1583       C  0.65467094  0.12467713  0.27528664    -0.02700
C1584       C  0.64099761  0.14154594  0.28217105     0.07000
C1585       C  0.62798614  0.14838436  0.25354397    -0.02800
C1586       C  0.63208122  0.14162443  0.21791764    -0.02800
C1587       C  0.65070427  0.12992682  0.21081156     0.07100
C1588       C  0.66013934  0.11941403  0.23960944    -0.03000
Br1589     Br  0.68203143  0.09956443  0.23063907    -0.01500
Br1590     Br  0.66569568  0.10856802  0.31476787    -0.01600
Br1591     Br  0.61151568  0.14749210  0.17887348    -0.01600
Br1592     Br  0.60682453  0.16911613  0.26251078    -0.01600
C1593       C  0.56181249  0.21862092  0.37191988    -0.02700
C1594       C  0.58770686  0.22381931  0.35395686     0.07000
C1595       C  0.60120955  0.24783823  0.33003118    -0.02800
C1596       C  0.59433638  0.27061823  0.33151807    -0.02800
C1597       C  0.57119905  0.26766880  0.35380490     0.07100
C1598       C  0.55280124  0.23992587  0.37031907    -0.03000
Br1599     Br  0.51547297  0.23100483  0.39082995    -0.01500
Br1600     Br  0.54011708  0.18364586  0.40082664    -0.01600
Br1601     Br  0.61688741  0.30562269  0.30351762    -0.01600
Br1602     Br  0.62827695  0.24834874  0.29470779    -0.01600
C1603       C  0.61310866  0.17117571  0.05684541    -0.02700
C1604       C  0.61730656  0.14645918  0.05398435     0.07000
C1605       C  0.60885643  0.13003526  0.02142702    -0.02800
C1606       C  0.60148252  0.14082833  0.99060325    -0.02800
C1607       C  0.59925812  0.16684129  0.99268476     0.07100
C1608       C  0.60344313  0.18077417  0.02686061    -0.03000
Br1609     Br  0.59569786  0.21294148  0.03346468    -0.01500
Br1610     Br  0.62110731  0.19263231  0.10194578    -0.01600
Br1611     Br  0.59758293  0.12068869  0.94502451    -0.01600
Br1612     Br  0.60820328  0.09294946  0.01789720    -0.01600
C1613       C  0.94910313  0.11567150  0.93677439    -0.02700
C1614       C  0.97626803  0.11613058  0.93659856     0.07000
C1615       C  0.98232976  0.10215360  0.96517928    -0.02800
C1616       C  0.96278079  0.09038204  0.99495934    -0.02800
C1617       C  0.93703347  0.09292229  0.99681850     0.07100
C1618       C  0.93083610  0.10624204  0.96751479    -0.03000
Br1619     Br  0.90047747  0.11690222  0.97083977    -0.01500
Br1620     Br  0.93686333  0.12870179  0.89484094    -0.01600
Br1621     Br  0.97271009  0.07196977  0.03335385    -0.01600
Br1622     Br  0.51790685  0.09982896  0.96500964    -0.01600
C1623       C  0.50930292  0.27473459  0.99253445    -0.02700
C1624       C  0.98385569  0.25260790  0.00979612     0.07000
C1625       C  0.97768247  0.22317136  0.01004729    -0.02800
C1626       C  0.99766939  0.21611776  0.99419134    -0.02800
C1627       C  0.52320833  0.23828127  0.97712271     0.07100
C1628       C  0.52912894  0.26761432  0.97639207    -0.03000
Br1629     Br  0.56460413  0.29797029  0.95364288    -0.01500
Br1630     Br  0.51682361  0.31475173  0.99128078    -0.01600
Br1631     Br  0.99072089  0.17637425  0.99651513    -0.01600
Br1632     Br  0.94186627  0.19269187  0.03213830    -0.01600
C1633       C  0.99118049  0.12891773  0.77350278    -0.02700
C1634       C  0.52124387  0.14965046  0.77926532     0.07000
C1635       C  0.53974019  0.16409062  0.74989149    -0.02800
C1636       C  0.52774184  0.16018451  0.71517197    -0.02800
C1637       C  0.99698298  0.14156625  0.70951001     0.07100
C1638       C  0.97886986  0.12513442  0.73877587    -0.03000
Br1639     Br  0.93682195  0.10022266  0.73274587    -0.01500
Br1640     Br  0.96696793  0.10617336  0.81370137    -0.01600
Br1641     Br  0.55407637  0.18162826  0.67611578    -0.01600
Br1642     Br  0.58120747  0.19115685  0.75781717    -0.01600
C1643       C  0.56780312  0.17973615  0.55159602    -0.02700
C1644       C  0.53988053  0.15324762  0.55084567     0.07000
C1645       C  0.53361264  0.13361655  0.52131324    -0.02800
C1646       C  0.55346126  0.14144058  0.49186962    -0.02800
C1647       C  0.58095919  0.16847032  0.49209413     0.07100
C1648       C  0.58826338  0.18698181  0.52295907    -0.03000
Br1649     Br  0.62652251  0.22258781  0.52700115    -0.01500
Br1650     Br  0.57859250  0.20728085  0.59137591    -0.01600
Br1651     Br  0.54049966  0.11574139  0.44975537    -0.01600
Br1652     Br  0.99647395  0.09682907  0.51849571    -0.01600
C1653       C  0.53190780  0.25106718  0.48150468    -0.02700
C1654       C  0.52435062  0.27323560  0.48016968     0.07000
C1655       C  0.49739004  0.26828085  0.49453838    -0.02800
C1656       C  0.97739859  0.24071146  0.50911672    -0.02800
C1657       C  0.98463676  0.21830879  0.50954942     0.07100
C1658       C  0.01142621  0.22316151  0.49486280    -0.03000
Br1659     Br  0.01938450  0.19112294  0.49282097    -0.01500
Br1660     Br  0.57017930  0.25895656  0.46512651    -0.01600
Br1661     Br  0.94033986  0.23366177  0.52902723    -0.01600
Br1662     Br  0.48844293  0.29968173  0.49484164    -0.01600
C1663       C  0.90853851  0.07952759  0.46472102    -0.02700
C1664       C  0.91271075  0.07030108  0.49900264     0.07000
C1665       C  0.90892314  0.04146979  0.50174665    -0.02800
C1666       C  0.89885883  0.02180725  0.47177435    -0.02800
C1667       C  0.89108312  0.02986320  0.43901150     0.07100
C1668       C  0.89760509  0.05943730  0.43522995    -0.03000
Br1669     Br  0.89173489  0.07254669  0.38901212    -0.01500
Br1670     Br  0.91858553  0.12002837  0.45729485    -0.01600
Br1671     Br  0.89462382  0.98327037  0.47674668    -0.01600
Br1672     Br  0.91500101  0.02707119  0.54712455    -0.01600
C1673       C  0.56145691  0.32851589  0.86404966    -0.02700
C1674       C  0.59053669  0.35069514  0.85588475     0.07000
C1675       C  0.60998172  0.34258822  0.84036784    -0.02800
C1676       C  0.60229894  0.31271102  0.83895256    -0.02800
C1677       C  0.57440520  0.29043813  0.85098463     0.07100
C1678       C  0.55307929  0.29834305  0.86043420    -0.03000
Br1679     Br  0.51345405  0.26815733  0.87275153    -0.01500
Br1680     Br  0.53455456  0.33957253  0.88464627    -0.01600
Br1681     Br  0.63097592  0.30276145  0.82314404    -0.01600
Br1682     Br  0.64845291  0.37293673  0.82447100    -0.01600
C1683       C  0.64650339  0.01956793  0.97922687    -0.02700
C1684       C  0.65263435  0.02734336  0.94222406     0.07000
C1685       C  0.66827236  0.05792162  0.93343307    -0.02800
C1686       C  0.67712002  0.07981547  0.96098803    -0.02800
C1687       C  0.66989515  0.07155518  0.99749906     0.07100
C1688       C  0.65403137  0.04123727  0.00627904    -0.03000
Br1689     Br  0.64471712  0.02887899  0.05633276    -0.01500
Br1690     Br  0.63191031  0.97968507  0.99495111    -0.01600
Br1691     Br  0.69853111  0.12127154  0.94880867    -0.01600
Br1692     Br  0.67778503  0.07039273  0.88386321    -0.01600
C1693       C  0.72876774  0.48666610  0.01380546    -0.02700
C1694       C  0.73063963  0.49422363  0.97724787     0.07000
C1695       C  0.75832385  0.50961141  0.95958043    -0.02800
C1696       C  0.78387764  0.51552861  0.97804773    -0.02800
C1697       C  0.78198884  0.00739831  0.01443483     0.07100
C1698       C  0.75438337  0.99302902  0.03248343    -0.03000
Br1699     Br  0.75086622  0.98240906  0.08295795    -0.01500
Br1700     Br  0.69098193  0.46810337  0.03820504    -0.01600
Br1701     Br  0.82136595  0.53315403  0.95295385    -0.01600
Br1702     Br  0.76182299  0.52132637  0.90947989    -0.01600
C1703       C  0.55625785  0.40795567  0.00156708    -0.02700
C1704       C  0.57963421  0.40198101  0.99690094     0.07000
C1705       C  0.58414172  0.38569346  0.02414072    -0.02800
C1706       C  0.56455665  0.37408669  0.05366830    -0.02800
C1707       C  0.53854219  0.37595659  0.05509743     0.07100
C1708       C  0.53553743  0.39461047  0.03001936    -0.03000
Br1709     Br  0.00290098  0.40174051  0.03339129    -0.01500
Br1710     Br  0.55268178  0.43525868  0.96991066    -0.01600
Br1711     Br  0.57399360  0.35559504  0.09252340    -0.01600
Br1712     Br  0.61542622  0.37633512  0.02058361    -0.01600
C1713       C  0.68030077  0.10621811  0.43706170    -0.02700
C1714       C  0.65593759  0.11082345  0.44057012     0.07000
C1715       C  0.63842718  0.10039890  0.47221756    -0.02800
C1716       C  0.64721966  0.08927151  0.50144119    -0.02800
C1717       C  0.67311745  0.08695570  0.49900220     0.07100
C1718       C  0.68819380  0.09357054  0.46543780    -0.03000
Br1719     Br  0.71922012  0.08449176  0.45711531    -0.01500
Br1720     Br  0.70461992  0.11876352  0.39413148    -0.01600
Br1721     Br  0.62379086  0.07927689  0.54538127    -0.01600
Br1722     Br  0.60333061  0.10330701  0.47761756    -0.01600
C1723       C  0.83637890  0.04791974  0.61592093    -0.02700
C1724       C  0.85646158  0.07265509  0.63645169     0.07000
C1725       C  0.84507008  0.08453821  0.66170280    -0.02800
C1726       C  0.81523028  0.07720094  0.65992268    -0.02800
C1727       C  0.79601586  0.05584615  0.63485492     0.07100
C1728       C  0.80603834  0.03883429  0.61628620    -0.03000
Br1729     Br  0.77835485  0.00292972  0.59187809    -0.01500
Br1730     Br  0.85063947  0.02793463  0.58530398    -0.01600
Br1731     Br  0.80100375  0.09634260  0.69156799    -0.01600
Br1732     Br  0.87106333  0.11067715  0.69840679    -0.01600
C1733       C  0.67602333  0.01319853  0.77573041    -0.02700
C1734       C  0.65032468  0.48589911  0.78353371     0.07000
C1735       C  0.62877169  0.47143035  0.75651505    -0.02800
C1736       C  0.63381418  0.48337276  0.72138050    -0.02800
C1737       C  0.66020747  0.00974769  0.71335219     0.07100
C1738       C  0.68102220  0.02478025  0.74066215    -0.03000
Br1739     Br  0.71774890  0.05992543  0.72906448    -0.01500
Br1740     Br  0.70504076  0.03498096  0.81274809    -0.01600
Br1741     Br  0.60570346  0.46260655  0.68336423    -0.01600
Br1742     Br  0.59377312  0.43402944  0.76649211    -0.01600
C1743       C  0.60297718  0.41112675  0.52777753    -0.02700
C1744       C  0.59932067  0.42028615  0.49318855     0.07000
C1745       C  0.60357879  0.44921274  0.48972795    -0.02800
C1746       C  0.61352759  0.46906608  0.51934747    -0.02800
C1747       C  0.62056223  0.46104070  0.55263111     0.07100
C1748       C  0.61357287  0.43138596  0.55713749    -0.03000
Br1749     Br  0.61849125  0.41856809  0.60406504    -0.01500
Br1750     Br  0.59300061  0.37071946  0.53564342    -0.01600
Br1751     Br  0.61887193  0.50788853  0.51282667    -0.01600
Br1752     Br  0.59839229  0.46351748  0.44369041    -0.01600
C1753       C  0.72440178  0.47873494  0.50157322    -0.02700
C1754       C  0.74257362  0.00869815  0.51117820     0.07000
C1755       C  0.77312377  0.02338243  0.50467656    -0.02800
C1756       C  0.78559555  0.00767876  0.48972592    -0.02800
C1757       C  0.76729093  0.47824924  0.47859079     0.07100
C1758       C  0.73671708  0.46357801  0.48461197    -0.03000
Br1759     Br  0.71154223  0.42345069  0.46772593    -0.01500
Br1760     Br  0.68265609  0.45846861  0.51139670    -0.01600
Br1761     Br  0.82783486  0.02582068  0.48573229    -0.01600
Br1762     Br  0.79826386  0.06429954  0.51851313    -0.01600
C1763       C  0.91184321  0.35336773  0.00003147    -0.02700
C1764       C  0.91209792  0.32631665  0.99867175     0.07000
C1765       C  0.90481027  0.31046039  0.96554617    -0.02800
C1766       C  0.89451873  0.31972096  0.93597022    -0.02800
C1767       C  0.89228824  0.34560900  0.93825205     0.07100
C1768       C  0.90316215  0.36338643  0.96963236    -0.03000
Br1769     Br  0.90480677  0.40098782  0.97253385    -0.01500
Br1770     Br  0.92016443  0.37598489  0.04447814    -0.01600
Br1771     Br  0.88236097  0.29579335  0.89253620    -0.01600
Br1772     Br  0.90872943  0.27581167  0.95980995    -0.01600
C1773       C  0.72455102  0.23806775  0.00819890    -0.02700
C1774       C  0.73808341  0.22114290  0.01354102     0.07000
C1775       C  0.76723636  0.23115415  0.00224962    -0.02800
C1776       C  0.78326689  0.25890202  0.98653488    -0.02800
C1777       C  0.76974831  0.27584934  0.98102999     0.07100
C1778       C  0.74063851  0.26589615  0.99256024    -0.03000
Br1779     Br  0.72222918  0.28954069  0.98590546    -0.01500
Br1780     Br  0.68361352  0.22235291  0.02076059    -0.01600
Br1781     Br  0.82412976  0.27432258  0.97394234    -0.01600
Br1782     Br  0.78598357  0.20787600  0.00993199    -0.01600
C1783       C  0.70815164  0.24341106  0.87600489    -0.02700
C1784       C  0.71906014  0.27075100  0.85808765     0.07000
C1785       C  0.70034968  0.27447786  0.83437359    -0.02800
C1786       C  0.67056028  0.25196388  0.83128023    -0.02800
C1787       C  0.65839138  0.22810029  0.85566448     0.07100
C1788       C  0.67766343  0.22292181  0.87648291    -0.03000
Br1789     Br  0.66209396  0.18986107  0.90916013    -0.01500
Br1790     Br  0.73445476  0.23403536  0.90080890    -0.01600
Br1791     Br  0.64683237  0.25219871  0.79231263    -0.01600
Br1792     Br  0.71480346  0.31105075  0.80847743    -0.01600
C1793       C  0.74220749  0.42685977  0.84250782    -0.02700
C1794       C  0.73269438  0.43206722  0.87617507     0.07000
C1795       C  0.74805562  0.43249668  0.90751315    -0.02800
C1796       C  0.77322873  0.42977527  0.90504378    -0.02800
C1797       C  0.77976611  0.41957635  0.87298770     0.07100
C1798       C  0.76414129  0.41842827  0.84134023    -0.03000
Br1799     Br  0.77171808  0.40395116  0.79714209    -0.01500
Br1800     Br  0.72408173  0.42947363  0.79871998    -0.01600
Br1801     Br  0.79753469  0.43840052  0.94704645    -0.01600
Br1802     Br  0.73282737  0.43219320  0.95501094    -0.01600
C1803       C  0.86472290  0.45352240  0.98632011    -0.02700
C1804       C  0.84416369  0.42360351  0.99383452     0.07000
C1805       C  0.83424759  0.41538430  0.02972483    -0.02800
C1806       C  0.84367648  0.43710027  0.05746456    -0.02800
C1807       C  0.86207886  0.46753756  0.04933530     0.07100
C1808       C  0.87277786  0.47528947  0.01335316    -0.03000
Br1809     Br  0.89607443  0.51582585  0.99834719    -0.01500
Br1810     Br  0.88055084  0.46576384  0.93783759    -0.01600
Br1811     Br  0.83227986  0.42457211  0.10675875    -0.01600
Br1812     Br  0.80872175  0.37413847  0.04109507    -0.01600
C1813       C  0.87188779  0.39209804  0.51819385    -0.02700
C1814       C  0.85377044  0.38119606  0.54926367     0.07000
C1815       C  0.82846003  0.38438216  0.55125530    -0.02800
C1816       C  0.81985351  0.39522621  0.52152698    -0.02800
C1817       C  0.83583199  0.40227777  0.48860018     0.07100
C1818       C  0.86256039  0.40144859  0.48772098    -0.03000
Br1819     Br  0.88611133  0.41058818  0.44401714    -0.01500
Br1820     Br  0.90927961  0.39338892  0.51598069    -0.01600
Br1821     Br  0.78615704  0.40061310  0.52677630    -0.01600
Br1822     Br  0.80455789  0.37311563  0.59453490    -0.01600
C1823       C  0.77062447  0.27629903  0.50162336    -0.02700
C1824       C  0.78347151  0.25904483  0.50936355     0.07000
C1825       C  0.76872691  0.22871157  0.50132378    -0.02800
C1826       C  0.74043172  0.21548024  0.48672689    -0.02800
C1827       C  0.72730604  0.23268714  0.47957135     0.07100
C1828       C  0.74217099  0.26305291  0.48761236    -0.03000
Br1829     Br  0.72494175  0.28714791  0.47643304    -0.01500
Br1830     Br  0.79283114  0.31837695  0.50861474    -0.01600
Br1831     Br  0.71950641  0.17369272  0.47698417    -0.01600
Br1832     Br  0.78640437  0.20495294  0.51224466    -0.01600
C1833       C  0.77626967  0.18851781  0.65972905    -0.02700
C1834       C  0.77474823  0.20697884  0.63348947     0.07000
C1835       C  0.74917672  0.19520040  0.61187111    -0.02800
C1836       C  0.72962564  0.16432159  0.61006582    -0.02800
C1837       C  0.73489069  0.14514067  0.63124297     0.07100
C1838       C  0.75689835  0.15762715  0.65803192    -0.03000
Br1839     Br  0.76047846  0.13229587  0.69213395    -0.01500
Br1840     Br  0.80190566  0.20575091  0.70029335    -0.01600
Br1841     Br  0.69723862  0.14841022  0.57647676    -0.01600
Br1842     Br  0.73972990  0.22157307  0.58729476    -0.01600
C1843       C  0.87827174  0.33993402  0.73741344    -0.02700
C1844       C  0.86660054  0.34865629  0.70912675     0.07000
C1845       C  0.85424697  0.36665958  0.71668471    -0.02800
C1846       C  0.85058517  0.37311417  0.75266000    -0.02800
C1847       C  0.85839503  0.36072048  0.78112319     0.07100
C1848       C  0.87432617  0.34614615  0.77333839    -0.03000
Br1849     Br  0.89150698  0.33530728  0.81184533    -0.01500
Br1850     Br  0.89750331  0.31742571  0.72732229    -0.01600
Br1851     Br  0.83411282  0.39807533  0.76251606    -0.01600
Br1852     Br  0.84198476  0.38227983  0.67779545    -0.01600
C1853       C  0.94908155  0.27425072  0.62307764    -0.02700
C1854       C  0.92179288  0.26822581  0.63774598     0.07000
C1855       C  0.90551222  0.24201538  0.65768797    -0.02800
C1856       C  0.91157975  0.21877939  0.65459642    -0.02800
C1857       C  0.93672988  0.22318032  0.63562930     0.07100
C1858       C  0.95708619  0.25210929  0.62337587    -0.03000
Br1859     Br  0.99518387  0.26115216  0.60524789    -0.01500
Br1860     Br  0.97430477  0.31178722  0.60040498    -0.01600
Br1861     Br  0.88474204  0.18084893  0.67492944    -0.01600
Br1862     Br  0.87463319  0.23843840  0.68865268    -0.01600
C1863       C  0.92295540  0.31107140  0.46524539    -0.02700
C1864       C  0.93083869  0.32817992  0.49740830     0.07000
C1865       C  0.95877468  0.35479862  0.49836697    -0.02800
C1866       C  0.97886178  0.36260543  0.46909685    -0.02800
C1867       C  0.97247798  0.34317587  0.43931930     0.07100
C1868       C  0.94388370  0.31773744  0.43728000    -0.03000
Br1869     Br  0.93294871  0.29102536  0.39647275    -0.01500
Br1870     Br  0.88285854  0.27930129  0.45788543    -0.01600
Br1871     Br  0.51610677  0.39930662  0.47183272    -0.01600
Br1872     Br  0.97159726  0.38046271  0.54048740    -0.01600
Fe1873     Fe  0.82204197  0.79946706  0.61117783     1.65800
Fe1874     Fe  0.89700778  0.83621521  0.60312013     1.73200
Fe1875     Fe  0.85552573  0.76699551  0.56896732     1.54400
O1876       O  0.81688555  0.73623920  0.59679808    -0.82500
O1877       O  0.91119120  0.83761796  0.55090400    -0.80800
O1878       O  0.80609534  0.75983903  0.63892738    -0.85000
O1879       O  0.80003361  0.77682186  0.56625436    -0.79900
O1880       O  0.88084393  0.76258005  0.60689160    -0.81600
O1881       O  0.88211304  0.86467182  0.58423810    -0.84400
C1882       C  0.80652829  0.77013215  0.53604646     0.96400
C1883       C  0.80116620  0.73601588  0.62345562     1.03800
O1884       O  0.85844108  0.80088853  0.59528259    -1.13400
O1885       O  0.88806909  0.84119676  0.65633701    -0.75800
O1886       O  0.83949090  0.82279508  0.65808594    -0.79300
O1887       O  0.83044559  0.77058625  0.52971911    -0.80000
C1888       C  0.86480601  0.83696576  0.67228157     0.95300
O1889       O  0.83311261  0.83713692  0.58294131    -0.77900
O1890       O  0.91495166  0.80950231  0.62072001    -0.83100
C1891       C  0.91029103  0.81828792  0.52965130     0.97900
C1892       C  0.90505111  0.78140085  0.62148292     1.03800
O1893       O  0.89275586  0.79096217  0.53564259    -0.78800
C1894       C  0.85684391  0.86037996  0.57444483     1.02100
Fe1895     Fe  0.81040217  0.81537905  0.87934184     1.65800
Fe1896     Fe  0.84747498  0.89001799  0.88820627     1.73200
Fe1897     Fe  0.77992098  0.84869427  0.92494746     1.54400
O1898       O  0.74858076  0.81058691  0.89721469    -0.82500
O1899       O  0.85124340  0.90206317  0.94136832    -0.80800
O1900       O  0.77129801  0.80156282  0.85212683    -0.85000
O1901       O  0.78740282  0.79232415  0.92373509    -0.79900
O1902       O  0.77378044  0.87411093  0.88858526    -0.81600
O1903       O  0.87636041  0.87409486  0.90224746    -0.84400
C1904       C  0.78254347  0.79917840  0.95481813     0.96400
C1905       C  0.74793837  0.79617275  0.86893645     1.03800
O1906       O  0.81251635  0.85168595  0.89639928    -1.13400
O1907       O  0.84944557  0.88200755  0.83364155    -0.75800
O1908       O  0.83416578  0.83389911  0.83295709    -0.79300
O1909       O  0.78560074  0.82403595  0.96238405    -0.80000
C1910       C  0.84677994  0.85907992  0.81807929     0.95300
O1911       O  0.84737051  0.82531159  0.90743352    -0.77900
O1912       O  0.82050658  0.90953260  0.87710718    -0.83100
C1913       C  0.83276797  0.90178178  0.96341024     0.97900
C1914       C  0.79246498  0.89991966  0.87800150     1.03800
O1915       O  0.80522928  0.88513361  0.95855435    -0.78800
C1916       C  0.87137154  0.84887341  0.91372543     1.02100
Fe1917     Fe  0.70326154  0.50992101  0.61268691     1.65800
Fe1918     Fe  0.66815242  0.54960198  0.60635582     1.73200
Fe1919     Fe  0.73636260  0.57578797  0.56943096     1.54400
O1920       O  0.76718554  0.56905739  0.59829890    -0.82500
O1921       O  0.66572302  0.56128588  0.55443691    -0.80800
O1922       O  0.74343428  0.53360439  0.63917513    -0.85000
O1923       O  0.72445958  0.50849758  0.56762553    -0.79900
O1924       O  0.74169516  0.60809976  0.60542594    -0.81600
O1925       O  0.63843192  0.50589308  0.58863887    -0.84400
C1926       C  0.73185277  0.52149418  0.53758481     0.96400
C1927       C  0.76722740  0.55318383  0.62442379     1.03800
O1928       O  0.70275350  0.54548426  0.59697030    -1.13400
O1929       O  0.66501514  0.53730523  0.66024038    -0.75800
O1930       O  0.68146698  0.50552481  0.66019530    -0.79300
O1931       O  0.73263887  0.54558847  0.53122941    -0.80000
C1932       C  0.66909019  0.51802881  0.67557125     0.95300
O1933       O  0.66484177  0.98333872  0.58548127    -0.77900
O1934       O  0.69524940  0.59484686  0.62140128    -0.83100
C1935       C  0.68425085  0.57783137  0.53118356     0.97900
C1936       C  0.72298978  0.61387036  0.61953349     1.03800
O1937       O  0.71157526  0.58698231  0.53517789    -0.78800
C1938       C  0.64196958  0.98455009  0.57788653     1.02100
Fe1939     Fe  0.68436842  0.98224164  0.88205640     1.65800
Fe1940     Fe  0.61059745  0.94008106  0.88763675     1.73200
Fe1941     Fe  0.65372348  0.91867900  0.92837322     1.54400
O1942       O  0.68314529  0.91571390  0.89339555    -0.82500
O1943       O  0.58959220  0.91532082  0.93400738    -0.80800
O1944       O  0.71041480  0.96231526  0.87505555    -0.85000
O1945       O  0.70009352  0.99515487  0.93261407    -0.79900
O1946       O  0.61932445  0.88333406  0.90134914    -0.81600
O1947       O  0.62169188  0.97846724  0.91712050    -0.84400
C1948       C  0.70422086  0.97975146  0.95517592     0.96400
C1949       C  0.70690219  0.93667614  0.88029807     1.03800
O1950       O  0.64971179  0.94648629  0.89880948    -1.13400
O1951       O  0.62492205  0.96407125  0.83891543    -0.75800
O1952       O  0.66982734  0.97106562  0.83036448    -0.79300
O1953       O  0.68876009  0.95170926  0.95642042    -0.80000
C1954       C  0.64774911  0.97224460  0.81919884     0.95300
O1955       O  0.66399737  0.50745445  0.88949941    -0.77900
O1956       O  0.59999687  0.90071087  0.86077902    -0.83100
C1957       C  0.59947883  0.91281578  0.96427542     0.97900
C1958       C  0.60363760  0.88005861  0.87351027     1.03800
O1959       O  0.62608387  0.91948505  0.96740166    -0.78800
C1960       C  0.64544211  0.50343356  0.91434364     1.02100
Fe1961     Fe  0.98607902  0.68146463  0.61153346     1.65800
Fe1962     Fe  0.95176171  0.60627064  0.60571123     1.73200
Fe1963     Fe  0.92013726  0.64373046  0.57008122     1.54400
O1964       O  0.92470055  0.68086226  0.59900026    -0.82500
O1965       O  0.93915642  0.59024292  0.55398846    -0.80800
O1966       O  0.96061627  0.69473732  0.63949067    -0.85000
O1967       O  0.98426861  0.70285933  0.56704558    -0.79900
O1968       O  0.89034286  0.61581791  0.60729253    -0.81600
O1969       O  0.99571608  0.62390567  0.58702716    -0.84400
C1970       C  0.97118428  0.69586491  0.53701469     0.96400
C1971       C  0.94041059  0.69766327  0.62490183     1.03800
O1972       O  0.95235127  0.64352902  0.59642579    -1.13400
O1973       O  0.96560478  0.61689517  0.65897358    -0.75800
O1974       O  0.99344423  0.66580405  0.65837509    -0.79300
O1975       O  0.94805721  0.67136594  0.53087734    -0.80000
C1976       C  0.98427666  0.64117387  0.67363935     0.95300
O1977       O  0.51418230  0.67251410  0.58281038    -0.77900
O1978       O  0.90683517  0.58520891  0.62293299    -0.83100
C1979       C  0.92140750  0.59066270  0.53143332     0.97900
C1980       C  0.88670391  0.59236379  0.62212597     1.03800
O1981       O  0.91085240  0.60768420  0.53593709    -0.78800
C1982       C  0.51546914  0.64947599  0.57579853     1.02100
Fe1983     Fe  0.52598845  0.69858767  0.87686420     1.65800
Fe1984     Fe  0.56417798  0.66216755  0.88370520     1.73200
Fe1985     Fe  0.59106235  0.73102192  0.92015076     1.54400
O1986       O  0.58527289  0.76144657  0.88966216    -0.82500
O1987       O  0.57535813  0.65985981  0.93604616    -0.80800
O1988       O  0.55024195  0.73745580  0.84820521    -0.85000
O1989       O  0.52563562  0.72266946  0.91992810    -0.79900
O1990       O  0.62274638  0.73520615  0.88414220    -0.81600
O1991       O  0.52047834  0.63313645  0.90035406    -0.84400
C1992       C  0.53768628  0.72935460  0.95056744     0.96400
C1993       C  0.57012311  0.76135513  0.86267179     1.03800
O1994       O  0.56081709  0.69738316  0.89280666    -1.13400
O1995       O  0.55201082  0.65844635  0.83016158    -0.75800
O1996       O  0.51951179  0.67381467  0.83123504    -0.79300
O1997       O  0.56103442  0.72897211  0.95795125    -0.80000
C1998       C  0.53150976  0.66093768  0.81584639     0.95300
O1999       O  0.00044442  0.66172908  0.90663094    -0.77900
O2000       O  0.60887919  0.68856748  0.86785611    -0.83100
C2001       C  0.59151385  0.67836599  0.95963054     0.97900
C2002       C  0.62774895  0.71636228  0.86882597     1.03800
O2003       O  0.60115471  0.70590655  0.95550945    -0.78800
C2004       C  0.00028257  0.63783223  0.91246498     1.02100
Fe2005     Fe  0.68803019  0.69244992  0.37808222     1.65800
Fe2006     Fe  0.65598005  0.72660220  0.41930101     1.73200
Fe2007     Fe  0.61341288  0.65681141  0.38834154     1.54400
O2008       O  0.62066803  0.65072008  0.33484677    -0.82500
O2009       O  0.61826190  0.70412988  0.45193758    -0.80800
O2010       O  0.66923242  0.66879034  0.33175486    -0.85000
O2011       O  0.67674660  0.65490956  0.40674746    -0.79900
O2012       O  0.59556239  0.68362659  0.37157664    -0.81600
O2013       O  0.68058000  0.72237075  0.45904760    -0.84400
C2014       C  0.65300952  0.63190404  0.41574045     0.96400
C2015       C  0.64356922  0.65446208  0.31837761     1.03800
O2016       O  0.65227773  0.69197317  0.39421937    -1.13400
O2017       O  0.69495976  0.75647226  0.39201747    -0.75800
O2018       O  0.70460124  0.73202052  0.34995552    -0.79300
O2019       O  0.62778612  0.62789532  0.40650261    -0.80000
C2020       C  0.71023468  0.75611880  0.36531027     0.95300
O2021       O  0.71052447  0.71509557  0.42270202    -0.77900
O2022       O  0.63112560  0.73097169  0.38029328    -0.83100
C2023       C  0.60156601  0.67714103  0.46011937     0.97900
C2024       C  0.60580652  0.71166436  0.36862606     1.03800
O2025       O  0.60160658  0.65707704  0.44124665    -0.78800
C2026       C  0.70415930  0.72193771  0.45291373     1.02100
Fe2027     Fe  0.69892871  0.67891612  0.11456340     1.65800
Fe2028     Fe  0.73099816  0.64902400  0.06556605     1.73200
Fe2029     Fe  0.66474880  0.60409834  0.10321004     1.54400
O2030       O  0.66202824  0.61104506  0.15795594    -0.82500
O2031       O  0.70693902  0.61292863  0.03115722    -0.80800
O2032       O  0.67549914  0.65871163  0.16052149    -0.85000
O2033       O  0.66121193  0.66783163  0.08716090    -0.79900
O2034       O  0.69410173  0.58693274  0.11325042    -0.81600
O2035       O  0.72218646  0.67278699  0.03027889    -0.84400
C2036       C  0.63820369  0.64371599  0.07923098     0.96400
C2037       C  0.66342496  0.63313720  0.17425741     1.07400
O2038       O  0.69833809  0.64358120  0.09571500    -1.13400
O2039       O  0.76164121  0.68721797  0.09409514    -0.75800
O2040       O  0.73898155  0.69409744  0.14103618    -0.79300
O2041       O  0.63446455  0.61852917  0.08926382    -0.80000
C2042       C  0.76241316  0.70063763  0.12339600     0.95300
O2043       O  0.72109572  0.70369509  0.07073158    -0.77900
O2044       O  0.73965632  0.62408106  0.09957900    -0.83100
C2045       C  0.67984889  0.59383222  0.02738694     0.97900
C2046       C  0.72235478  0.59789615  0.11026720     1.03800
O2047       O  0.66093134  0.59143398  0.05021674    -0.78800
C2048       C  0.72523993  0.69740945  0.03899175     1.02100
Fe2049     Fe  0.80910381  0.98195212  0.37715666     1.65800
Fe2050     Fe  0.77462358  0.91434279  0.41575255     1.73200
Fe2051     Fe  0.84380121  0.94203699  0.38267257     1.54400
O2052       O  0.84739257  0.95475831  0.32904517    -0.82500
O2053       O  0.79829037  0.90085950  0.44904297    -0.80800
O2054       O  0.83249388  0.98786249  0.33036188    -0.85000
O2055       O  0.84657439  0.50744167  0.40652192    -0.79900
O2056       O  0.81686119  0.89673659  0.36662158    -0.81600
O2057       O  0.77774979  0.94248510  0.45610804    -0.84400
C2058       C  0.86966251  0.50646538  0.41342959     0.96400
C2059       C  0.84420252  0.97485278  0.31443149     1.03800
O2060       O  0.80906964  0.94586770  0.39100388    -1.13400
O2061       O  0.74492297  0.92306789  0.38775663    -0.75800
O2062       O  0.76981593  0.95954329  0.34855089    -0.79300
O2063       O  0.87353952  0.98569143  0.40125854    -0.80000
C2064       C  0.74562957  0.93985381  0.36238173     0.95300
O2065       O  0.78636450  0.98104843  0.42205540    -0.77900
O2066       O  0.76987821  0.88446299  0.37679585    -0.83100
C2067       C  0.82560855  0.91162849  0.45579037     0.97900
C2068       C  0.78891821  0.87824571  0.36518422     1.03800
O2069       O  0.84499295  0.93031975  0.43493683    -0.78800
C2070       C  0.77839439  0.96667369  0.45123474     1.02100
Fe2071     Fe  0.82870602  0.51449192  0.10815824     1.65800
Fe2072     Fe  0.86304775  0.57780318  0.06154925     1.73200
Fe2073     Fe  0.90282550  0.55409139  0.10476432     1.54400
O2074       O  0.88741546  0.52932105  0.15224161    -0.82500
O2075       O  0.88939729  0.57337872  0.02373874    -0.80800
O2076       O  0.84302612  0.52354350  0.16033087    -0.85000
O2077       O  0.84687459  0.98729266  0.09849243    -0.79900
O2078       O  0.91297325  0.59267518  0.13233941    -0.81600
O2079       O  0.82667289  0.54701761  0.03388435    -0.84400
C2080       C  0.86743967  0.99140048  0.07635046     0.96400
C2081       C  0.86462020  0.52156871  0.17161741     1.03800
O2082       O  0.86450972  0.54904763  0.09201175    -1.13400
O2083       O  0.83502091  0.58351185  0.09592754    -0.75800
O2084       O  0.80579782  0.53761560  0.11620741    -0.79300
O2085       O  0.89165145  0.51603344  0.07542209    -0.80000
C2086       C  0.81077497  0.56366842  0.10958920     0.95300
O2087       O  0.81167834  0.50284599  0.05774917    -0.77900
O2088       O  0.89891657  0.61189594  0.08781076    -0.83100
C2089       C  0.91629358  0.58147356  0.02848554     0.97900
C2090       C  0.91166791  0.61407871  0.11786526     1.03800
O2091       O  0.92535238  0.57974792  0.05955472    -0.78800
C2092       C  0.80887285  0.51944085  0.03567402     1.02100
Fe2093     Fe  0.98472518  0.79256220  0.11166582     1.65800
Fe2094     Fe  0.91877769  0.76169038  0.07054583     1.73200
Fe2095     Fe  0.94886064  0.83095772  0.10630441     1.54400
O2096       O  0.96074736  0.83359198  0.16034978    -0.82500
O2097       O  0.90841301  0.78745706  0.03713121    -0.80800
O2098       O  0.99264326  0.81749743  0.15795165    -0.85000
O2099       O  0.51125748  0.82905944  0.08182338    -0.79900
O2100       O  0.90340668  0.80567877  0.12145651    -0.81600
O2101       O  0.94723870  0.76300907  0.03109639    -0.84400
C2102       C  0.51298131  0.85386602  0.07752205     0.96400
C2103       C  0.98121268  0.83064268  0.17425052     1.03800
O2104       O  0.95045467  0.79499723  0.09689927    -1.13400
O2105       O  0.92458604  0.73065741  0.09926278    -0.75800
O2106       O  0.95969786  0.75440161  0.14058242    -0.79300
O2107       O  0.99330705  0.85913053  0.09019434    -0.80000
C2108       C  0.93989440  0.73066944  0.12595440     0.95300
O2109       O  0.98300579  0.76800661  0.06770276    -0.77900
O2110       O  0.88860415  0.75830096  0.10824288    -0.83100
C2111       C  0.92017508  0.81509005  0.03151759     0.97900
C2112       C  0.88396865  0.77793511  0.12183385     1.03800
O2113       O  0.93860079  0.83375005  0.05346524    -0.78800
C2114       C  0.97026147  0.76172441  0.03740641     1.02100
Fe2115     Fe  0.52423779  0.81234578  0.37875427     1.65800
Fe2116     Fe  0.59065792  0.84732417  0.42034378     1.73200
Fe2117     Fe  0.56127557  0.88729695  0.38618771     1.54400
O2118       O  0.54865288  0.87842202  0.33224865    -0.82500
O2119       O  0.60104343  0.88308231  0.45558913    -0.80800
O2120       O  0.51765522  0.82982715  0.33228654    -0.85000
O2121       O  0.99732143  0.82245607  0.40818592    -0.79900
O2122       O  0.60647986  0.90762354  0.37028320    -0.81600
O2123       O  0.56218177  0.81959259  0.45908306    -0.84400
C2124       C  0.99689787  0.84598505  0.41493615     0.96400
C2125       C  0.52877602  0.85490540  0.31725331     1.03800
O2126       O  0.55907826  0.84920602  0.39432678    -1.13400
O2127       O  0.58462743  0.81015838  0.39035301    -0.75800
O2128       O  0.54852537  0.79752957  0.35030569    -0.79300
O2129       O  0.51724593  0.87120365  0.40359433    -0.80000
C2130       C  0.56845151  0.79378971  0.36445666     0.95300
O2131       O  0.52491820  0.78985208  0.42296319    -0.77900
O2132       O  0.62130222  0.87531794  0.38365149    -0.83100
C2133       C  0.59040376  0.89994300  0.46086487     0.97900
C2134       C  0.62593780  0.89957219  0.37010207     1.03800
O2135       O  0.57259936  0.90072422  0.43874957    -0.78800
C2136       C  0.53826410  0.79585630  0.45285425     1.02100
C2137       C  0.97421712  0.83479277  0.24100916    -0.02700
C2138       C  0.99297556  0.84286985  0.21067443     0.07000
C2139       C  0.52383512  0.86074556  0.21565303    -0.02800
C2140       C  0.53596752  0.86694019  0.25073869    -0.02800
C2141       C  0.51721168  0.85583386  0.28100303     0.07100
C2142       C  0.98640730  0.84217420  0.27597635    -0.03000
Br2143     Br  0.96104278  0.83515128  0.31703508    -0.01500
Br2144     Br  0.93199489  0.81151363  0.23521046    -0.01600
Br2145     Br  0.57814022  0.88974031  0.25708334    -0.01600
Br2146     Br  0.54956851  0.87707378  0.17437403    -0.01600
C2147       C  0.90877552  0.67899437  0.14881530    -0.02700
C2148       C  0.93640368  0.70196494  0.13700160     0.07000
C2149       C  0.95887122  0.69549134  0.12818457    -0.02800
C2150       C  0.95209610  0.66582375  0.12587644    -0.02800
C2151       C  0.92386600  0.64295019  0.13574709     0.07100
C2152       C  0.90334300  0.64989917  0.15042892    -0.03000
Br2153     Br  0.86607197  0.61854404  0.16809661    -0.01500
Br2154     Br  0.87695730  0.68625877  0.15819083    -0.01600
Br2155     Br  0.97961215  0.65606081  0.10398263    -0.01600
Br2156     Br  0.99760311  0.72650320  0.11391105    -0.01600
C2157       C  0.66711409  0.90721468  0.32916412    -0.02700
C2158       C  0.65627356  0.91892562  0.35545616     0.07000
C2159       C  0.67677795  0.94443729  0.37459772    -0.02800
C2160       C  0.70728412  0.95444952  0.37196618    -0.02800
C2161       C  0.71718953  0.93792603  0.35213707     0.07100
C2162       C  0.69739903  0.91616496  0.32798194    -0.03000
Br2163     Br  0.71185745  0.89946339  0.29286110    -0.01500
Br2164     Br  0.63993136  0.87907466  0.29503023    -0.01600
Br2165     Br  0.73549469  0.99086656  0.39509264    -0.01600
Br2166     Br  0.66323787  0.96439105  0.40633642    -0.01600
C2167       C  0.83237351  0.96800249  0.24938754    -0.02700
C2168       C  0.85307695  0.98328778  0.27672339     0.07000
C2169       C  0.87915418  0.50994781  0.26884646    -0.02800
C2170       C  0.88385001  0.52208766  0.23389638    -0.02800
C2171       C  0.86190663  0.50789106  0.20722014     0.07100
C2172       C  0.83643880  0.98039559  0.21486342    -0.03000
Br2173     Br  0.80646417  0.95958244  0.17853560    -0.01500
Br2174     Br  0.79752424  0.93075873  0.26007605    -0.01600
Br2175     Br  0.91907115  0.55927725  0.22371344    -0.01600
Br2176     Br  0.90763883  0.53038117  0.30660707    -0.01600
C2177       C  0.80353032  0.75296988  0.11534791    -0.02700
C2178       C  0.79164360  0.72604795  0.13450400     0.07000
C2179       C  0.81004985  0.72223067  0.15876793    -0.02800
C2180       C  0.84062871  0.74320639  0.15984386    -0.02800
C2181       C  0.85325854  0.76685839  0.13503851     0.07100
C2182       C  0.83427099  0.77283773  0.11467986    -0.03000
Br2183     Br  0.85047005  0.80637311  0.08267366    -0.01500
Br2184     Br  0.77787407  0.76258807  0.08940054    -0.01600
Br2185     Br  0.86568930  0.74008795  0.19506796    -0.01600
Br2186     Br  0.79364549  0.68766306  0.18892780    -0.01600
C2187       C  0.77273241  0.57059470  0.14562621    -0.02700
C2188       C  0.78592698  0.56984314  0.11247163     0.07000
C2189       C  0.77392358  0.57340742  0.08020972    -0.02800
C2190       C  0.74787840  0.57463402  0.08091548    -0.02800
C2191       C  0.73711671  0.57986642  0.11350885     0.07100
C2192       C  0.74998467  0.57793393  0.14614559    -0.03000
Br2193     Br  0.73775372  0.58697106  0.19103437    -0.01500
Br2194     Br  0.78736995  0.56403461  0.19004617    -0.01600
Br2195     Br  0.72756310  0.56945587  0.03613710    -0.01600
Br2196     Br  0.79422624  0.58005527  0.03450861    -0.01600
C2197       C  0.73349653  0.80298079  0.32864576    -0.02700
C2198       C  0.73633171  0.78495727  0.35431929     0.07000
C2199       C  0.76256766  0.79716057  0.37478879    -0.02800
C2200       C  0.78259878  0.82799391  0.37479467    -0.02800
C2201       C  0.77686422  0.84684461  0.35358656     0.07100
C2202       C  0.75334906  0.83380643  0.32860153    -0.03000
Br2203     Br  0.74751360  0.85829099  0.29533694    -0.01500
Br2204     Br  0.70292560  0.78521358  0.29315573    -0.01600
Br2205     Br  0.81589562  0.84448973  0.40708134    -0.01600
Br2206     Br  0.77132855  0.77160710  0.40242430    -0.01600
C2207       C  0.65477090  0.62476512  0.27525158    -0.02700
C2208       C  0.64102736  0.64156665  0.28214308     0.07000
C2209       C  0.62795964  0.64834511  0.25352244    -0.02800
C2210       C  0.63205445  0.64158546  0.21789443    -0.02800
C2211       C  0.65073251  0.62995379  0.21078055     0.07100
C2212       C  0.66025021  0.61952042  0.23957472    -0.03000
Br2213     Br  0.68229838  0.59983627  0.23059804    -0.01500
Br2214     Br  0.66588218  0.60872251  0.31472097    -0.01600
Br2215     Br  0.61142874  0.64737665  0.17885792    -0.01600
Br2216     Br  0.60672127  0.66899852  0.26249465    -0.01600
C2217       C  0.56181055  0.71861159  0.37191382    -0.02700
C2218       C  0.58769786  0.72380477  0.35393795     0.07000
C2219       C  0.60118981  0.74781445  0.32999823    -0.02800
C2220       C  0.59431505  0.77059397  0.33148054    -0.02800
C2221       C  0.57118472  0.76765063  0.35377764     0.07100
C2222       C  0.55279508  0.73991283  0.37030740    -0.03000
Br2223     Br  0.51546984  0.73099149  0.39082701    -0.01500
Br2224     Br  0.54013268  0.68364966  0.40084671    -0.01600
Br2225     Br  0.61685335  0.80558794  0.30345860    -0.01600
Br2226     Br  0.62823946  0.74830813  0.29465915    -0.01600
C2227       C  0.61308062  0.67116237  0.05682603    -0.02700
C2228       C  0.61729079  0.64645469  0.05395568     0.07000
C2229       C  0.60885221  0.63003931  0.02139279    -0.02800
C2230       C  0.60148310  0.64083742  0.99057049    -0.02800
C2231       C  0.59924849  0.66684441  0.99266009     0.07100
C2232       C  0.60341789  0.68076493  0.02684249    -0.03000
Br2233     Br  0.59565383  0.71291844  0.03345755    -0.01500
Br2234     Br  0.62105528  0.69259560  0.10194149    -0.01600
Br2235     Br  0.59760415  0.62071281  0.94498520    -0.01600
Br2236     Br  0.60820581  0.59295746  0.01785709    -0.01600
C2237       C  0.94909480  0.61572767  0.93680300    -0.02700
C2238       C  0.97625362  0.61617391  0.93659961     0.07000
C2239       C  0.98231447  0.60217618  0.96515764    -0.02800
C2240       C  0.96277090  0.59039524  0.99494184    -0.02800
C2241       C  0.93703208  0.59294725  0.99682867     0.07100
C2242       C  0.93083609  0.60628952  0.96754990    -0.03000
Br2243     Br  0.90049064  0.61696520  0.97092346    -0.01500
Br2244     Br  0.93684754  0.62878168  0.89489831    -0.01600
Br2245     Br  0.97269191  0.57195097  0.03330466    -0.01600
Br2246     Br  0.51793856  0.59986920  0.96501889    -0.01600
C2247       C  0.50925271  0.77471525  0.99249371    -0.02700
C2248       C  0.98380625  0.75259625  0.00980713     0.07000
C2249       C  0.97766065  0.72316885  0.01008050    -0.02800
C2250       C  0.99766112  0.71613172  0.99422921    -0.02800
C2251       C  0.52318191  0.73827610  0.97710049     0.07100
C2252       C  0.52908731  0.76760377  0.97635755    -0.03000
Br2253     Br  0.56455683  0.79796544  0.95360527    -0.01500
Br2254     Br  0.51675227  0.81472471  0.99122031    -0.01600
Br2255     Br  0.99075148  0.67640301  0.99658139    -0.01600
Br2256     Br  0.94186277  0.69268015  0.03219490    -0.01600
C2257       C  0.99114828  0.62896914  0.77351337    -0.02700
C2258       C  0.52121640  0.64963824  0.77925106     0.07000
C2259       C  0.53971758  0.66406300  0.74987549    -0.02800
C2260       C  0.52772371  0.66014283  0.71515210    -0.02800
C2261       C  0.99696296  0.64156194  0.70950418     0.07100
C2262       C  0.97884241  0.62516157  0.73878013    -0.03000
Br2263     Br  0.93679506  0.60025217  0.73274524    -0.01500
Br2264     Br  0.96692443  0.60626522  0.81372656    -0.01600
Br2265     Br  0.55406395  0.68155613  0.67608952    -0.01600
Br2266     Br  0.58118523  0.69112992  0.75780086    -0.01600
C2267       C  0.56781989  0.67969131  0.55159358    -0.02700
C2268       C  0.53989237  0.65320853  0.55083140     0.07000
C2269       C  0.53362126  0.63358780  0.52128660    -0.02800
C2270       C  0.55346877  0.64142091  0.49184068    -0.02800
C2271       C  0.58096994  0.66844635  0.49207676     0.07100
C2272       C  0.58828124  0.68694203  0.52295689    -0.03000
Br2273     Br  0.62655284  0.72252975  0.52701897    -0.01500
Br2274     Br  0.57861401  0.70722487  0.59138491    -0.01600
Br2275     Br  0.54050213  0.61574121  0.44970896    -0.01600
Br2276     Br  0.99645618  0.59683196  0.51847527    -0.01600
C2277       C  0.53190981  0.75105867  0.48148086    -0.02700
C2278       C  0.52432092  0.77320354  0.48012139     0.07000
C2279       C  0.49734273  0.76821992  0.49446521    -0.02800
C2280       C  0.97738529  0.74069256  0.50908126    -0.02800
C2281       C  0.98462019  0.71828770  0.50952517     0.07100
C2282       C  0.01140888  0.72313497  0.49484268    -0.03000
Br2283     Br  0.01936074  0.69109230  0.49281176    -0.01500
Br2284     Br  0.57019730  0.75898191  0.46512250    -0.01600
Br2285     Br  0.94032507  0.73364881  0.52897954    -0.01600
Br2286     Br  0.48834887  0.79958824  0.49473275    -0.01600
C2287       C  0.90853023  0.57951411  0.46471653    -0.02700
C2288       C  0.91270151  0.57028970  0.49900018     0.07000
C2289       C  0.90891511  0.54145946  0.50174966    -0.02800
C2290       C  0.89885136  0.52179440  0.47178057    -0.02800
C2291       C  0.89108285  0.52985024  0.43901267     0.07100
C2292       C  0.89760788  0.55942443  0.43522459    -0.03000
Br2293     Br  0.89176009  0.57253385  0.38899447    -0.01500
Br2294     Br  0.91855523  0.62000849  0.45729067    -0.01600
Br2295     Br  0.89460339  0.48325320  0.47676574    -0.01600
Br2296     Br  0.91499031  0.52706515  0.54713254    -0.01600
C2297       C  0.56145424  0.82852115  0.86400970    -0.02700
C2298       C  0.59053826  0.85069786  0.85585761     0.07000
C2299       C  0.60998473  0.84258751  0.84035236    -0.02800
C2300       C  0.60229705  0.81270887  0.83893790    -0.02800
C2301       C  0.57439675  0.79043793  0.85095489     0.07100
C2302       C  0.55307184  0.79834714  0.86039171    -0.03000
Br2303     Br  0.51344146  0.76816468  0.87269490    -0.01500
Br2304     Br  0.53455200  0.83958150  0.88459749    -0.01600
Br2305     Br  0.63097763  0.80275442  0.82315907    -0.01600
Br2306     Br  0.64846389  0.87293211  0.82447155    -0.01600
C2307       C  0.64651643  0.51957886  0.97921843    -0.02700
C2308       C  0.65264149  0.52735049  0.94221422     0.07000
C2309       C  0.66827397  0.55792725  0.93341672    -0.02800
C2310       C  0.67712189  0.57982374  0.96096788    -0.02800
C2311       C  0.66990010  0.57156640  0.99748000     0.07100
C2312       C  0.65404272  0.54125022  0.00626631    -0.03000
Br2313     Br  0.64473465  0.52889851  0.05632269    -0.01500
Br2314     Br  0.63193539  0.47970022  0.99494994    -0.01600
Br2315     Br  0.69853041  0.62127865  0.94878294    -0.01600
Br2316     Br  0.67777757  0.57039179  0.88384368    -0.01600
C2317       C  0.72876859  0.98664772  0.01379177    -0.02700
C2318       C  0.73063965  0.99421003  0.97723598     0.07000
C2319       C  0.75832350  0.00959802  0.95956734    -0.02800
C2320       C  0.78387828  0.01551686  0.97803374    -0.02800
C2321       C  0.78198730  0.50741217  0.01444996     0.07100
C2322       C  0.75438204  0.49304906  0.03249944    -0.03000
Br2323     Br  0.75086421  0.48243952  0.08297770    -0.01500
Br2324     Br  0.69098306  0.96808115  0.03819262    -0.01600
Br2325     Br  0.82136752  0.03314956  0.95294131    -0.01600
Br2326     Br  0.76182159  0.02131384  0.90946743    -0.01600
C2327       C  0.55623837  0.90792849  0.00153179    -0.02700
C2328       C  0.57961987  0.90196074  0.99687230     0.07000
C2329       C  0.58412305  0.88566714  0.02410687    -0.02800
C2330       C  0.56453252  0.87405193  0.05362804    -0.02800
C2331       C  0.53851901  0.87592446  0.05505715     0.07100
C2332       C  0.53551369  0.89457689  0.02997755    -0.03000
Br2333     Br  0.00287114  0.90171936  0.03337436    -0.01500
Br2334     Br  0.55265798  0.93522737  0.96987200    -0.01600
Br2335     Br  0.57395999  0.85554204  0.09247047    -0.01600
Br2336     Br  0.61541028  0.87631243  0.02054871    -0.01600
C2337       C  0.68032475  0.60623301  0.43705575    -0.02700
C2338       C  0.65596091  0.61083884  0.44055356     0.07000
C2339       C  0.63844530  0.60041381  0.47219765    -0.02800
C2340       C  0.64723231  0.58928564  0.50142640    -0.02800
C2341       C  0.67312786  0.58696541  0.49899527     0.07100
C2342       C  0.68820809  0.59357846  0.46543379    -0.03000
Br2343     Br  0.71922444  0.58448401  0.45711636    -0.01500
Br2344     Br  0.70466115  0.61878832  0.39414176    -0.01600
Br2345     Br  0.62379798  0.57929437  0.54536158    -0.01600
Br2346     Br  0.60334838  0.60332230  0.47758787    -0.01600
C2347       C  0.83636677  0.54790517  0.61594919    -0.02700
C2348       C  0.85645621  0.57264976  0.63646160     0.07000
C2349       C  0.84507304  0.58454687  0.66170388    -0.02800
C2350       C  0.81523622  0.57721788  0.65992330    -0.02800
C2351       C  0.79601456  0.55585347  0.63486991     0.07100
C2352       C  0.80602754  0.53882655  0.61631698    -0.03000
Br2353     Br  0.77833394  0.50291336  0.59193174    -0.01500
Br2354     Br  0.85061586  0.52789383  0.58536052    -0.01600
Br2355     Br  0.80102465  0.59638576  0.69154683    -0.01600
Br2356     Br  0.87107512  0.61069527  0.69839460    -0.01600
C2357       C  0.67603316  0.51320215  0.77573974    -0.02700
C2358       C  0.65031830  0.98589368  0.78352534     0.07000
C2359       C  0.62877038  0.97141435  0.75650419    -0.02800
C2360       C  0.63381493  0.98334973  0.72136619    -0.02800
C2361       C  0.66020951  0.50976824  0.71336653     0.07100
C2362       C  0.68102923  0.52479156  0.74067489    -0.03000
Br2363     Br  0.71775790  0.55993572  0.72907786    -0.01500
Br2364     Br  0.70505903  0.53497280  0.81275350    -0.01600
Br2365     Br  0.60571132  0.96257198  0.68334697    -0.01600
Br2366     Br  0.59377703  0.93400989  0.76648413    -0.01600
C2367       C  0.60296612  0.91110635  0.52775997    -0.02700
C2368       C  0.59930742  0.92026603  0.49317190     0.07000
C2369       C  0.60356958  0.94919452  0.48971351    -0.02800
C2370       C  0.61352537  0.96904887  0.51933252    -0.02800
C2371       C  0.62056297  0.96102307  0.55261406     0.07100
C2372       C  0.61357114  0.93136721  0.55711861    -0.03000
Br2373     Br  0.61849979  0.91854965  0.60404133    -0.01500
Br2374     Br  0.59297517  0.87069498  0.53562787    -0.01600
Br2375     Br  0.61887632  0.00787399  0.51281296    -0.01600
Br2376     Br  0.59837712  0.96350046  0.44368002    -0.01600
C2377       C  0.72440102  0.97872915  0.50156312    -0.02700
C2378       C  0.74258288  0.50869920  0.51120319     0.07000
C2379       C  0.77313542  0.52337093  0.50471968    -0.02800
C2380       C  0.78559909  0.50766067  0.48976476    -0.02800
C2381       C  0.76729588  0.97825992  0.47857278     0.07100
C2382       C  0.73672323  0.96357775  0.48460514    -0.03000
Br2383     Br  0.71155813  0.92344330  0.46773575    -0.01500
Br2384     Br  0.68265753  0.95844842  0.51140267    -0.01600
Br2385     Br  0.82783780  0.52578049  0.48579693    -0.01600
Br2386     Br  0.79828794  0.56427890  0.51858493    -0.01600
C2387       C  0.91181328  0.85336869  0.00003594    -0.02700
C2388       C  0.91206707  0.82631703  0.99868432     0.07000
C2389       C  0.90478166  0.81045785  0.96556077    -0.02800
C2390       C  0.89449755  0.81971862  0.93597691    -0.02800
C2391       C  0.89226824  0.84560755  0.93824975     0.07100
C2392       C  0.90313771  0.86338639  0.96963009    -0.03000
Br2393     Br  0.90478953  0.90099142  0.97251937    -0.01500
Br2394     Br  0.92012888  0.87598764  0.04448018    -0.01600
Br2395     Br  0.88234982  0.79579148  0.89254235    -0.01600
Br2396     Br  0.90869189  0.77580312  0.95983878    -0.01600
C2397       C  0.72453650  0.73805890  0.00814776    -0.02700
C2398       C  0.73807400  0.72113897  0.01349111     0.07000
C2399       C  0.76722936  0.73115658  0.00220563    -0.02800
C2400       C  0.78325795  0.75890754  0.98649935    -0.02800
C2401       C  0.76973502  0.77585052  0.98099467     0.07100
C2402       C  0.74062317  0.76589139  0.99251984    -0.03000
Br2403     Br  0.72221356  0.78953710  0.98588110    -0.01500
Br2404     Br  0.68359455  0.72233259  0.02069608    -0.01600
Br2405     Br  0.82412563  0.77434129  0.97392553    -0.01600
Br2406     Br  0.78598346  0.70788481  0.00988900    -0.01600
C2407       C  0.70814003  0.74342212  0.87596577    -0.02700
C2408       C  0.71904904  0.77076121  0.85804673     0.07000
C2409       C  0.70033695  0.77448738  0.83433377    -0.02800
C2410       C  0.67054638  0.75197358  0.83124399    -0.02800
C2411       C  0.65837830  0.72811307  0.85563293     0.07100
C2412       C  0.67765137  0.72293601  0.87645086    -0.03000
Br2413     Br  0.66208316  0.68988163  0.90913722    -0.01500
Br2414     Br  0.73444349  0.73404214  0.90076080    -0.01600
Br2415     Br  0.64681999  0.75219738  0.79226649    -0.01600
Br2416     Br  0.71479090  0.81105703  0.80843065    -0.01600
C2417       C  0.74221824  0.92688753  0.84249240    -0.02700
C2418       C  0.73268945  0.93207031  0.87616254     0.07000
C2419       C  0.74803852  0.93248237  0.90750376    -0.02800
C2420       C  0.77321574  0.92976850  0.90503580    -0.02800
C2421       C  0.77976784  0.91959035  0.87297256     0.07100
C2422       C  0.76415508  0.91846025  0.84132130    -0.03000
Br2423     Br  0.77175176  0.90401317  0.79711237    -0.01500
Br2424     Br  0.72410731  0.92952679  0.79870487    -0.01600
Br2425     Br  0.79750845  0.93837887  0.94704810    -0.01600
Br2426     Br  0.73279109  0.93214953  0.95499934    -0.01600
C2427       C  0.86472324  0.95351980  0.98629702    -0.02700
C2428       C  0.84416075  0.92360099  0.99380862     0.07000
C2429       C  0.83425096  0.91537849  0.02970015    -0.02800
C2430       C  0.84368693  0.93709164  0.05744372    -0.02800
C2431       C  0.86208900  0.96752932  0.04931762     0.07100
C2432       C  0.87278954  0.97528379  0.01333656    -0.03000
Br2433     Br  0.89611596  0.01582078  0.99834438    -0.01500
Br2434     Br  0.88054047  0.96576583  0.93781089    -0.01600
Br2435     Br  0.83231007  0.92456008  0.10674035    -0.01600
Br2436     Br  0.80872321  0.87413234  0.04106680    -0.01600
C2437       C  0.87190877  0.89212203  0.51817852    -0.02700
C2438       C  0.85379185  0.88121792  0.54924816     0.07000
C2439       C  0.82848319  0.88440686  0.55124389    -0.02800
C2440       C  0.81987670  0.89525291  0.52151795    -0.02800
C2441       C  0.83584895  0.90229646  0.48858753     0.07100
C2442       C  0.86257713  0.90146712  0.48770489    -0.03000
Br2443     Br  0.88612280  0.91060108  0.44399735    -0.01500
Br2444     Br  0.90930903  0.89343060  0.51597031    -0.01600
Br2445     Br  0.78619348  0.90066037  0.52677663    -0.01600
Br2446     Br  0.80458616  0.87314663  0.59452683    -0.01600
C2447       C  0.77063066  0.77631439  0.50160421    -0.02700
C2448       C  0.78347584  0.75905940  0.50935094     0.07000
C2449       C  0.76872996  0.72872476  0.50131764    -0.02800
C2450       C  0.74043704  0.71549369  0.48671497    -0.02800
C2451       C  0.72731510  0.73270194  0.47954813     0.07100
C2452       C  0.74218097  0.76306883  0.48758205    -0.03000
Br2453     Br  0.72495858  0.78716544  0.47637614    -0.01500
Br2454     Br  0.79283101  0.81839152  0.50860988    -0.01600
Br2455     Br  0.71951024  0.67370515  0.47697865    -0.01600
Br2456     Br  0.78639963  0.70496259  0.51226091    -0.01600
C2457       C  0.77627826  0.68853773  0.65971294    -0.02700
C2458       C  0.77475634  0.70699755  0.63347192     0.07000
C2459       C  0.74918192  0.69521952  0.61185873    -0.02800
C2460       C  0.72962852  0.66434074  0.61005804    -0.02800
C2461       C  0.73489477  0.64516037  0.63123498     0.07100
C2462       C  0.75690431  0.65764748  0.65802102    -0.03000
Br2463     Br  0.76048100  0.63231647  0.69212719    -0.01500
Br2464     Br  0.80191850  0.70577229  0.70027270    -0.01600
Br2465     Br  0.69723455  0.64842857  0.57647908    -0.01600
Br2466     Br  0.73973397  0.72159327  0.58728655    -0.01600
C2467       C  0.87830325  0.83995716  0.73739058    -0.02700
C2468       C  0.86663162  0.84867615  0.70910077     0.07000
C2469       C  0.85426745  0.86667014  0.71665708    -0.02800
C2470       C  0.85059185  0.87311471  0.75263145    -0.02800
C2471       C  0.85839923  0.86072078  0.78109679     0.07100
C2472       C  0.87433956  0.84615467  0.77331613    -0.03000
Br2473     Br  0.89150419  0.83530285  0.81182951    -0.01500
Br2474     Br  0.89756657  0.81747904  0.72730036    -0.01600
Br2475     Br  0.83409783  0.89805757  0.76248225    -0.01600
Br2476     Br  0.84201098  0.88229290  0.67776507    -0.01600
C2477       C  0.94908053  0.77424439  0.62303574    -0.02700
C2478       C  0.92179632  0.76822711  0.63771022     0.07000
C2479       C  0.90551441  0.74202061  0.65765855    -0.02800
C2480       C  0.91157497  0.71878006  0.65456882    -0.02800
C2481       C  0.93672322  0.72317485  0.63560267     0.07100
C2482       C  0.95708107  0.75210035  0.62334009    -0.03000
Br2483     Br  0.99517427  0.76113493  0.60520522    -0.01500
Br2484     Br  0.97430105  0.81177218  0.60034217    -0.01600
Br2485     Br  0.88472696  0.68085060  0.67489660    -0.01600
Br2486     Br  0.87464304  0.73845515  0.68862859    -0.01600
C2487       C  0.92297106  0.81105605  0.46521222    -0.02700
C2488       C  0.93084812  0.82817431  0.49736894     0.07000
C2489       C  0.95877957  0.85479994  0.49831900    -0.02800
C2490       C  0.97886776  0.86260535  0.46904976    -0.02800
C2491       C  0.97248951  0.84317068  0.43927955     0.07100
C2492       C  0.94389790  0.81772956  0.43724162    -0.03000
Br2493     Br  0.93296496  0.79103401  0.39641607    -0.01500
Br2494     Br  0.88288684  0.77925435  0.45786919    -0.01600
Br2495     Br  0.51609111  0.89932391  0.47176475    -0.01600
Br2496     Br  0.97159779  0.88047630  0.54042835    -0.01600
loop_ 
_geom_bond_atom_site_label_1 
_geom_bond_atom_site_label_2 
_geom_bond_distance 
_geom_bond_site_symmetry_2 
_ccdc_geom_bond_type 
Fe1          O17   2.045       .  S
Fe1           O7   2.028       .  S
Fe1          O14   2.050       .  S
Fe1           O6   2.080       .  S
Fe1          O12   1.961       .  S
Fe2           O5   2.054       .  S
Fe2           O9   2.124       .  S
Fe2          O13   2.066       .  S
Fe2          O18   2.147       .  S
Fe2          O12   1.956       .  S
Fe3          O21   2.106       .  S
Fe3           O8   2.030       .  S
Fe3          O15   2.037       .  S
Fe3           O4   2.115       .  S
Fe3          O12   1.955       .  S
O4           C11   1.278       .  A
O5           C19   1.259       .  A
O6           C11   1.271       .  A
O7           C10   1.264       .  A
O8           C20   1.271       .  A
O9           C22   1.282       .  A
C10          O15   1.264       .  A
C10         C576   1.440       .  S
C11         C586   1.499       .  S
O13          C16   1.268       .  A
O14          C16   1.265       .  A
C16         C596   1.473       .  S
O17          C22   1.266       .  A
O18          C20   1.290       .  A
C19          O21   1.272       .  A
C19         C616   1.513       .  S
C20         C606   1.493       .  S
C22         C566   1.509       .  S
Fe23         O39   2.028       .  S
Fe23         O29   2.036       .  S
Fe23         O36   2.054       .  S
Fe23         O28   2.065       .  S
Fe23         O34   1.948       .  S
Fe24         O27   2.041       .  S
Fe24         O31   2.133       .  S
Fe24         O35   2.071       .  S
Fe24         O40   2.164       .  S
Fe24         O34   1.943       .  S
Fe25         O43   2.093       .  S
Fe25         O30   2.036       .  S
Fe25         O37   2.022       .  S
Fe25         O26   2.102       .  S
Fe25         O34   1.943       .  S
O26          C33   1.276       .  A
O27          C41   1.258       .  A
O28          C33   1.270       .  A
O29          C32   1.264       .  A
O30          C42   1.268       .  A
O31          C44   1.285       .  A
C32          O37   1.258       .  A
C32         C529   1.436       .  S
C33         C536   1.482       .  S
O35          C38   1.270       .  A
O36          C38   1.267       .  A
C38         C599   1.480       .  S
O39          C44   1.263       .  A
O40          C42   1.293       .  A
C41          O43   1.269       .  A
C41         C556   1.492       .  S
C42         C549   1.495       .  S
C44         C519   1.502       .  S
Fe45         O51   2.020       .  S
Fe45         O58   2.041       .  S
Fe45         O50   2.077       .  S
Fe45        O685   2.046   1_545  S
Fe45         O56   1.967       .  S
Fe46         O49   2.043       .  S
Fe46         O53   2.119       .  S
Fe46         O57   2.078       .  S
Fe46         O62   2.130       .  S
Fe46         O56   1.962       .  S
Fe47         O65   2.106       .  S
Fe47         O52   2.051       .  S
Fe47         O59   2.048       .  S
Fe47         O48   2.116       .  S
Fe47         O56   1.961       .  S
O48          C55   1.279       .  A
O49          C63   1.260       .  A
O50          C55   1.272       .  A
O51          C54   1.260       .  A
O52          C64   1.272       .  A
O53         C690   1.281   1_545  A
C54          O59   1.265       .  A
C54         C506   1.443       .  S
C55         C479   1.498       .  S
O57          C60   1.270       .  A
O58          C60   1.262       .  A
C60         C489   1.468       .  S
O61        Fe669   2.046       .  S
O61          C66   1.266       .  A
O62          C64   1.286       .  A
C63          O65   1.271       .  A
C63         C469   1.511       .  S
C64         C589   1.491       .  S
C66         O677   1.281       .  A
C66         C499   1.501       .  S
Fe67         O73   2.018       .  S
Fe67         O80   2.032       .  S
Fe67         O72   2.110       .  S
Fe67        O707   2.091       .  S
Fe67         O78   1.941       .  S
Fe68         O71   2.099       .  S
Fe68         O75   2.089       .  S
Fe68         O79   2.110       .  S
Fe68         O84   2.089       .  S
Fe68         O78   1.952       .  S
Fe69         O87   2.056       .  S
Fe69         O74   2.076       .  S
Fe69         O81   2.059       .  S
Fe69         O70   2.073       .  S
Fe69         O78   1.921       .  S
O70          C77   1.271       .  A
O71          C85   1.271       .  A
O72          C77   1.275       .  A
O73          C76   1.257       .  A
O74          C86   1.277       .  A
O75         C712   1.277       .  A
C76          O81   1.271       .  A
C76         C446   1.452       .  S
C77         C546   1.496       .  S
O79          C82   1.276       .  A
O80          C82   1.263       .  A
C82         C486   1.478       .  S
O83        Fe691   2.091   1_545  S
O83          C88   1.274       .  A
O84          C86   1.282       .  A
C85          O87   1.263       .  A
C85         C456   1.504       .  S
C86         C426   1.479       .  S
C88         O699   1.277   1_545  A
C88         C436   1.511       .  S
Fe89         O95   2.026       .  S
Fe89        O102   2.042       .  S
Fe89         O94   2.061       .  S
Fe89       O1353   2.046       .  S
Fe89        O100   1.960       .  S
Fe90         O93   2.057       .  S
Fe90         O97   2.120       .  S
Fe90        O101   2.076       .  S
Fe90        O106   2.134       .  S
Fe90        O100   1.967       .  S
Fe91        O109   2.107       .  S
Fe91         O96   2.043       .  S
Fe91        O103   2.052       .  S
Fe91         O92   2.118       .  S
Fe91        O100   1.960       .  S
O92          C99   1.280       .  A
O93         C107   1.262       .  A
O94          C99   1.269       .  A
O95          C98   1.260       .  A
O96         C108   1.271       .  A
O97        C1358   1.282       .  A
C98         O103   1.265       .  A
C98         C409   1.443       .  S
C99         C609   1.493       .  S
O101        C104   1.269       .  A
O102        C104   1.263       .  A
C104        C389   1.483       .  S
O105      Fe1337   2.046   1_455  S
O105        C110   1.266       .  A
O106        C108   1.287       .  A
C107        O109   1.274       .  A
C107        C416   1.511       .  S
C108        C476   1.488       .  S
C110       O1345   1.282   1_455  A
C110        C396   1.507       .  S
Fe111       O117   2.030       .  S
Fe111       O124   2.044       .  S
Fe111       O116   2.071       .  S
Fe111      O1375   2.035       .  S
Fe111       O122   1.954       .  S
Fe112       O115   2.048       .  S
Fe112       O119   2.105       .  S
Fe112       O123   2.062       .  S
Fe112       O128   2.118       .  S
Fe112       O122   1.965       .  S
Fe113       O131   2.110       .  S
Fe113       O118   2.049       .  S
Fe113       O125   2.063       .  S
Fe113       O114   2.101       .  S
Fe113       O122   1.954       .  S
O114        C121   1.278       .  A
O115        C129   1.260       .  A
O116        C121   1.273       .  A
O117        C120   1.259       .  A
O118        C130   1.270       .  A
O119       C1380   1.279       .  A
C120        O125   1.267       .  A
C120        C379   1.450       .  S
C121        C429   1.490       .  S
O123        C126   1.266       .  A
O124        C126   1.262       .  A
C126        C386   1.466       .  S
O127      Fe1359   2.035       .  S
O127        C132   1.267       .  A
O128        C130   1.283       .  A
C129        O131   1.275       .  A
C129        C359   1.511       .  S
C130        C539   1.483       .  S
C132       O1367   1.279       .  A
C132        C366   1.494       .  S
Fe133       O149   2.026       .  S
Fe133       O139   2.046       .  S
Fe133       O146   2.082       .  S
Fe133       O138   2.050       .  S
Fe133       O144   1.954       .  S
Fe134       O137   2.099       .  S
Fe134       O141   2.047       .  S
Fe134       O145   2.103       .  S
Fe134       O150   2.040       .  S
Fe134       O144   1.951       .  S
Fe135       O153   2.051       .  S
Fe135       O140   2.139       .  S
Fe135       O147   2.117       .  S
Fe135       O136   2.065       .  S
Fe135       O144   1.952       .  S
O136        C143   1.269       .  A
O137        C151   1.269       .  A
O138        C143   1.267       .  A
O139        C142   1.266       .  A
O140        C152   1.289       .  A
O141        C154   1.268       .  A
C142        O147   1.279       .  A
C142        C466   1.506       .  S
C143        C336   1.472       .  S
O145        C148   1.274       .  A
O146        C148   1.272       .  A
C148        C326   1.496       .  S
O149        C154   1.265       .  A
O150        C152   1.273       .  A
C151        O153   1.258       .  A
C151        C399   1.507       .  S
C152        C346   1.490       .  S
C154        C579   1.442       .  S
Fe155       O171   2.037       .  S
Fe155       O161   2.034       .  S
Fe155       O168   2.082       .  S
Fe155       O160   2.052       .  S
Fe155       O166   1.957       .  S
Fe156       O159   2.089       .  S
Fe156       O163   2.018       .  S
Fe156       O167   2.108       .  S
Fe156       O172   2.030       .  S
Fe156       O166   1.937       .  S
Fe157       O175   2.043       .  S
Fe157       O162   2.173       .  S
Fe157       O169   2.141       .  S
Fe157       O158   2.071       .  S
Fe157       O166   1.946       .  S
O158        C165   1.269       .  A
O159        C173   1.268       .  A
O160        C165   1.266       .  A
O161        C164   1.265       .  A
O162        C174   1.297       .  A
O163        C176   1.256       .  A
C164        O169   1.288       .  A
C164        C356   1.507       .  S
C165        C339   1.476       .  S
O167        C170   1.277       .  A
O168        C170   1.275       .  A
C170        C306   1.495       .  S
O171        C176   1.264       .  A
O172        C174   1.268       .  A
C173        O175   1.257       .  A
C173        C439   1.493   1_554  S
C174        C319   1.498       .  S
C176        C526   1.433       .  S
Fe177       O193   2.026       .  S
Fe177       O190   2.077       .  S
Fe177       O182   2.049       .  S
Fe177       O807   2.046       .  S
Fe177       O188   1.959       .  S
Fe178       O181   2.114       .  S
Fe178       O185   2.038       .  S
Fe178       O189   2.110       .  S
Fe178       O194   2.041       .  S
Fe178       O188   1.956       .  S
Fe179       O197   2.043       .  S
Fe179       O184   2.141       .  S
Fe179       O191   2.127       .  S
Fe179       O180   2.074       .  S
Fe179       O188   1.954       .  S
O180        C187   1.270       .  A
O181        C195   1.274       .  A
O182        C187   1.265       .  A
O183       Fe801   2.046   1_545  S
O183        C186   1.266       .  A
O184        C196   1.288       .  A
O185        C198   1.264       .  A
C186        O815   1.282   1_545  A
C186        C419   1.505       .  S
C187        C296   1.467       .  S
O189        C192   1.278       .  A
O190        C192   1.271       .  A
O191        C810   1.282       .  A
C192        C289   1.495       .  S
O193        C198   1.263       .  A
O194        C196   1.269       .  A
C195        O197   1.259       .  A
C195        C569   1.510       .  S
C196        C329   1.494       .  S
C198        C509   1.439       .  S
Fe199       O215   2.025       .  S
Fe199       O212   2.111       .  S
Fe199       O204   2.039       .  S
Fe199       O829   2.102   1_545  S
Fe199       O210   1.933       .  S
Fe200       O203   2.054       .  S
Fe200       O207   2.046       .  S
Fe200       O211   2.070       .  S
Fe200       O216   2.069       .  S
Fe200       O210   1.919       .  S
Fe201       O219   2.099       .  S
Fe201       O206   2.073       .  S
Fe201       O213   2.071       .  S
Fe201       O202   2.092       .  S
Fe201       O210   1.952       .  S
O202        C209   1.271       .  A
O203        C217   1.265       .  A
O204        C209   1.262       .  A
O205       Fe823   2.101       .  S
O205        C208   1.281       .  A
O206        C218   1.278       .  A
O207        C220   1.266       .  A
C208        O837   1.275       .  A
C208        C559   1.507       .  S
C209        C299   1.475       .  S
O211        C214   1.273       .  A
O212        C214   1.278       .  A
O213        C832   1.275   1_545  A
C214        C316   1.496       .  S
O215        C220   1.258       .  A
O216        C218   1.275       .  A
C217        O219   1.267       .  A
C217        C369   1.501   1_554  S
C218        C279   1.465       .  S
C220        C449   1.454       .  S
Fe221       O237   2.039       .  S
Fe221       O234   2.056       .  S
Fe221       O226   2.058       .  S
Fe221      O1475   2.034       .  S
Fe221       O232   1.947       .  S
Fe222       O225   2.100       .  S
Fe222       O229   2.058       .  S
Fe222       O233   2.094       .  S
Fe222       O238   2.044       .  S
Fe222       O232   1.956       .  S
Fe223       O241   2.055       .  S
Fe223       O228   2.137       .  S
Fe223       O235   2.121       .  S
Fe223       O224   2.080       .  S
Fe223       O232   1.955       .  S
O224        C231   1.271       .  A
O225        C239   1.272       .  A
O226        C231   1.266       .  A
O227      Fe1469   2.034   1_455  S
O227        C230   1.266       .  A
O228        C240   1.287       .  A
O229        C242   1.266       .  A
C230       O1483   1.279   1_455  A
C230        C459   1.504       .  S
C231        C266   1.485       .  S
O233        C236   1.276       .  A
O234        C236   1.270       .  A
O235       C1478   1.279       .  A
C236        C276   1.479       .  S
O237        C242   1.262       .  A
O238        C240   1.269       .  A
C239        O241   1.262       .  A
C239        C516   1.506   1_554  S
C240        C309   1.492       .  S
C242        C376   1.450       .  S
Fe243       O259   2.032       .  S
Fe243       O256   2.074       .  S
Fe243       O248   2.063       .  S
Fe243      O1497   2.048   1_455  S
Fe243       O254   1.959       .  S
Fe244       O247   2.108       .  S
Fe244       O251   2.052       .  S
Fe244       O255   2.114       .  S
Fe244       O260   2.050       .  S
Fe244       O254   1.966       .  S
Fe245       O263   2.049       .  S
Fe245       O250   2.134       .  S
Fe245       O257   2.119       .  S
Fe245       O246   2.080       .  S
Fe245       O254   1.964       .  S
O246        C253   1.270       .  A
O247        C261   1.273       .  A
O248        C253   1.268       .  A
O249      Fe1491   2.048       .  S
O249        C252   1.266       .  A
O250        C262   1.286       .  A
O251        C264   1.265       .  A
C252       O1505   1.280       .  A
C252        C619   1.507       .  S
C253        C269   1.486       .  S
O255        C258   1.279       .  A
O256        C258   1.272       .  A
O257       C1500   1.280   1_455  A
C258        C349   1.496       .  S
O259        C264   1.262       .  A
O260        C262   1.272       .  A
C261        O263   1.261       .  A
C261        C496   1.505       .  S
C262        C286   1.492       .  S
C264        C406   1.447       .  S
C265        C266   1.408       .  A
C265        C270   1.409       .  A
C265       Br272   1.929       .  S
C266       C1515   1.416       .  A
C267        C268   1.411       .  A
C267       C1514   1.416   1_455  A
C267       Br274   1.928       .  S
C268        C269   1.407       .  A
C268       Br273   1.928       .  S
C269       C1518   1.413   1_455  A
C270       C1517   1.413       .  A
C270       Br271   1.925       .  S
C275        C276   1.408       .  A
C275        C280   1.403       .  A
C275       Br282   1.919       .  S
C276        C277   1.417       .  A
C277        C278   1.410       .  A
C277       Br284   1.929       .  S
C278        C279   1.405       .  A
C278       Br283   1.930       .  S
C279        C280   1.404       .  A
C280       Br281   1.927       .  S
C285        C286   1.408       .  A
C285        C290   1.413       .  A
C285       Br292   1.917       .  S
C286        C287   1.411       .  A
C287        C288   1.414       .  A
C287       Br294   1.922       .  S
C288        C289   1.413       .  A
C288       Br293   1.925       .  S
C289        C290   1.406       .  A
C290       Br291   1.915       .  S
C295        C296   1.403       .  A
C295        C300   1.402       .  A
C295       Br302   1.926       .  S
C296        C921   1.408       .  A
C297        C298   1.409       .  A
C297        C920   1.409   1_545  A
C297       Br304   1.929       .  S
C298        C299   1.411       .  A
C298       Br303   1.930       .  S
C299        C924   1.415   1_545  A
C300        C923   1.415       .  A
C300       Br301   1.935       .  S
C305        C306   1.414       .  A
C305        C310   1.412       .  A
C305       Br312   1.921       .  S
C306        C307   1.409       .  A
C307        C308   1.417       .  A
C307       Br314   1.925       .  S
C308        C309   1.413       .  A
C308       Br313   1.921       .  S
C309        C310   1.408       .  A
C310       Br311   1.929       .  S
C315        C316   1.415       .  A
C315        C320   1.426       .  A
C315       Br322   1.922       .  S
C316        C317   1.409       .  A
C317        C318   1.400       .  A
C317       Br324   1.931       .  S
C318        C319   1.411       .  A
C318       Br323   1.917       .  S
C319        C320   1.415       .  A
C320       Br321   1.917       .  S
C325        C326   1.403       .  A
C325        C330   1.412       .  A
C325       Br332   1.914       .  S
C326        C327   1.413       .  A
C327        C328   1.414       .  A
C327       Br334   1.921       .  S
C328        C329   1.411       .  A
C328       Br333   1.927       .  S
C329        C330   1.413       .  A
C330       Br331   1.916       .  S
C335        C336   1.411       .  A
C335        C340   1.403       .  A
C335       Br342   1.922       .  S
C336        C337   1.405       .  A
C337        C338   1.405       .  A
C337       Br344   1.930       .  S
C338        C339   1.413       .  A
C338       Br343   1.924       .  S
C339        C340   1.404       .  A
C340       Br341   1.924       .  S
C345        C346   1.408       .  A
C345        C350   1.415       .  A
C345       Br352   1.925       .  S
C346        C347   1.406       .  A
C347        C348   1.410       .  A
C347       Br354   1.915       .  S
C348        C349   1.407       .  A
C348       Br353   1.913       .  S
C349        C350   1.417       .  A
C350       Br351   1.923       .  S
C355        C356   1.421       .  A
C355        C360   1.418       .  A
C355       Br362   1.930       .  S
C356        C357   1.412       .  A
C357        C358   1.415   1_554  A
C357       Br364   1.928       .  S
C358        C359   1.425       .  A
C358       Br363   1.938       .  S
C359        C360   1.417   1_556  A
C360       Br361   1.935       .  S
C365        C366   1.413       .  A
C365        C370   1.405       .  A
C365       Br372   1.937       .  S
C366        C367   1.415       .  A
C367        C368   1.416       .  A
C367      Br1622   1.932       .  S
C368        C369   1.424       .  A
C368       Br373   1.936   1_556  S
C369        C370   1.417       .  A
C370       Br371   1.938       .  S
Br374      C1615   1.932   1_455  S
C375        C380   1.399       .  A
C375       C1624   1.405   1_456  A
C375       Br382   1.927       .  S
C376        C377   1.406       .  A
C376       C1623   1.405   1_554  A
C377        C378   1.400   1_554  A
C377       Br384   1.930       .  S
C378       C1627   1.405       .  A
C378       Br383   1.925       .  S
C379        C380   1.405       .  A
C379       C1626   1.405   1_455  A
C380       Br381   1.928       .  S
C385        C390   1.408       .  A
C385       C1634   1.409       .  A
C385       Br392   1.929       .  S
C386        C387   1.398       .  A
C386       C1633   1.409   1_455  A
C387        C388   1.401       .  A
C387       Br394   1.929       .  S
C388       C1637   1.419   1_455  A
C388       Br393   1.922       .  S
C389        C390   1.411       .  A
C389       C1636   1.419       .  A
C390       Br391   1.929       .  S
C395        C396   1.422       .  A
C395        C400   1.414       .  A
C395       Br402   1.929       .  S
C396        C397   1.416       .  A
C397        C398   1.415       .  A
C397      Br1652   1.932   1_455  S
C398        C399   1.424       .  A
C398       Br403   1.939       .  S
C399        C400   1.416       .  A
C400       Br401   1.938       .  S
Br404      C1645   1.932       .  S
C405        C406   1.404       .  A
C405       C1658   1.398       .  A
C405       Br412   1.930       .  S
C406        C407   1.405   1_455  A
C407       C1656   1.397       .  A
C407       Br414   1.923       .  S
C408        C409   1.403       .  A
C408       C1655   1.397       .  A
C408       Br413   1.930       .  S
C409        C410   1.403       .  A
C410       C1653   1.398       .  A
C410       Br411   1.922       .  S
C415        C416   1.417       .  A
C415        C420   1.417       .  A
C415       Br422   1.931       .  S
C416        C417   1.424       .  A
C417        C418   1.418       .  A
C417       Br424   1.937       .  S
C418        C419   1.414       .  A
C418       Br423   1.925   1_545  S
C419        C420   1.415       .  A
C420       Br421   1.929       .  S
C425        C426   1.408       .  A
C425        C430   1.415       .  A
C425       Br432   1.927       .  S
C426        C427   1.406       .  A
C427        C428   1.405       .  A
C427       Br434   1.927       .  S
C428        C429   1.407       .  A
C428       Br433   1.911       .  S
C429        C430   1.416       .  A
C430       Br431   1.928       .  S
C435        C436   1.419       .  A
C435        C440   1.407   1_556  A
C435       Br442   1.919   1_545  S
C436        C437   1.422       .  A
C437        C438   1.421       .  A
C437       Br444   1.927       .  S
C438        C439   1.411       .  A
C438       Br443   1.930       .  S
C439        C440   1.411   1_556  A
C440       Br441   1.942       .  S
C445        C446   1.400   1_554  A
C445       C1074   1.397       .  A
C445       Br452   1.934       .  S
C446        C447   1.416       .  A
C447        C448   1.396       .  A
C447       Br454   1.934       .  S
C448       C1073   1.402   1_556  A
C448       Br453   1.935       .  S
C449        C450   1.417   1_545  A
C449       C1072   1.402   1_554  A
C450       C1069   1.397       .  A
C450       Br451   1.933       .  S
C455        C456   1.420   1_554  A
C455        C460   1.418       .  A
C455       Br462   1.935   1_554  S
C456        C457   1.420   1_556  A
C457        C458   1.409       .  A
C457       Br464   1.939       .  S
C458        C459   1.417       .  A
C458       Br463   1.938       .  S
C459        C460   1.417       .  A
C460      Br1709   1.930       .  S
Br461      C1708   1.930       .  S
C465        C466   1.420       .  A
C465        C470   1.415       .  A
C465       Br472   1.931       .  S
C466        C467   1.415       .  A
C467        C468   1.416       .  A
C467       Br474   1.932       .  S
C468        C469   1.426       .  A
C468       Br473   1.941       .  S
C469        C470   1.416       .  A
C470       Br471   1.935       .  S
C475        C476   1.408       .  A
C475        C480   1.413       .  A
C475       Br482   1.923       .  S
C476        C477   1.406       .  A
C477        C478   1.414       .  A
C477       Br484   1.921       .  S
C478        C479   1.409       .  A
C478       Br483   1.913       .  S
C479        C480   1.414       .  A
C480       Br481   1.923       .  S
C485        C490   1.402       .  A
C485       C1110   1.416   1_545  A
C485       Br492   1.935       .  S
C486        C487   1.411       .  A
C486       C1109   1.416       .  A
C487        C488   1.411       .  A
C487       Br494   1.929       .  S
C488       C1113   1.410       .  A
C488       Br493   1.929       .  S
C489        C490   1.403       .  A
C489       C1112   1.410   1_545  A
C490       Br491   1.927       .  S
C495        C496   1.417       .  A
C495        C500   1.418       .  A
C495       Br502   1.930       .  S
C496        C497   1.421       .  A
C497        C498   1.413       .  A
C497       Br504   1.940       .  S
C498        C499   1.413       .  A
C498       Br503   1.923       .  S
C499        C500   1.415       .  A
C500       Br501   1.930       .  S
C505        C510   1.395       .  A
C505       C1130   1.409       .  A
C505       Br512   1.926       .  S
C506        C507   1.405       .  A
C506       C1129   1.409   1_545  A
C507        C508   1.393       .  A
C507       Br514   1.932       .  S
C508       C1133   1.403   1_545  A
C508       Br513   1.927       .  S
C509        C510   1.404       .  A
C509       C1132   1.403       .  A
C510       Br511   1.934       .  S
C515        C516   1.423   1_554  A
C515        C520   1.415   1_554  A
C515       Br522   1.938       .  S
C516        C517   1.417       .  A
C517        C518   1.414       .  A
C517       Br524   1.936       .  S
C518        C519   1.420       .  A
C518       Br523   1.932       .  S
C519        C520   1.413       .  A
C520       Br521   1.928       .  S
C525        C526   1.402       .  A
C525        C530   1.391   1_554  A
C525       Br532   1.929       .  S
C526        C527   1.406       .  A
C527        C528   1.389   1_554  A
C527       Br534   1.936       .  S
C528        C529   1.403       .  A
C528       Br533   1.928       .  S
C529        C530   1.407       .  A
C530       Br531   1.933       .  S
C535        C536   1.414       .  A
C535        C540   1.407       .  A
C535       Br542   1.921       .  S
C536        C537   1.406       .  A
C537        C538   1.410       .  A
C537       Br544   1.927       .  S
C538        C539   1.410       .  A
C538       Br543   1.914       .  S
C539        C540   1.406       .  A
C540       Br541   1.928       .  S
C545        C546   1.414       .  A
C545        C550   1.426       .  A
C545       Br552   1.923       .  S
C546        C547   1.409       .  A
C547        C548   1.400       .  A
C547       Br554   1.923       .  S
C548        C549   1.407       .  A
C548       Br553   1.917       .  S
C549        C550   1.416       .  A
C550       Br551   1.919       .  S
C555        C556   1.412       .  A
C555        C560   1.407   1_556  A
C555       Br562   1.944       .  S
C556        C557   1.412   1_556  A
C557        C558   1.418       .  A
C557       Br564   1.930       .  S
C558        C559   1.419       .  A
C558       Br563   1.929       .  S
C559        C560   1.421       .  A
C560       Br561   1.923   1_554  S
C565        C566   1.414       .  A
C565        C570   1.416       .  A
C565       Br572   1.930       .  S
C566        C567   1.421       .  A
C567        C568   1.417       .  A
C567       Br574   1.931       .  S
C568        C569   1.416       .  A
C568       Br573   1.934       .  S
C569        C570   1.425       .  A
C570       Br571   1.939       .  S
C575        C576   1.404       .  A
C575        C580   1.392       .  A
C575       Br582   1.920       .  S
C576        C577   1.402       .  A
C577        C578   1.394       .  A
C577       Br584   1.935       .  S
C578        C579   1.409       .  A
C578       Br583   1.922       .  S
C579        C580   1.404       .  A
C580       Br581   1.934       .  S
C585        C586   1.405       .  A
C585        C590   1.412       .  A
C585       Br592   1.912       .  S
C586        C587   1.411       .  A
C587        C588   1.413       .  A
C587       Br594   1.921       .  S
C588        C589   1.411       .  A
C588       Br593   1.926       .  S
C589        C590   1.409       .  A
C590       Br591   1.913       .  S
C595        C596   1.405       .  A
C595        C600   1.405       .  A
C595       Br602   1.932       .  S
C596        C597   1.413       .  A
C597        C598   1.406       .  A
C597       Br604   1.926       .  S
C598        C599   1.407       .  A
C598       Br603   1.927       .  S
C599        C600   1.414       .  A
C600       Br601   1.925       .  S
C605        C606   1.408       .  A
C605        C610   1.418       .  A
C605       Br612   1.925       .  S
C606        C607   1.408       .  A
C607        C608   1.408       .  A
C607       Br614   1.910       .  S
C608        C609   1.404       .  A
C608       Br613   1.919       .  S
C609        C610   1.419       .  A
C610       Br611   1.925       .  S
C615        C616   1.416       .  A
C615        C620   1.415       .  A
C615       Br622   1.934       .  S
C616        C617   1.426       .  A
C617        C618   1.417       .  A
C617       Br624   1.938       .  S
C618        C619   1.416       .  A
C618      Br1871   1.933       .  S
C619        C620   1.420       .  A
C620       Br621   1.932       .  S
Br623      C1866   1.933   1_455  S
Fe625       O641   2.045       .  S
Fe625       O631   2.028       .  S
Fe625       O638   2.050       .  S
Fe625       O630   2.080       .  S
Fe625       O636   1.961       .  S
Fe626       O629   2.054       .  S
Fe626       O633   2.124       .  S
Fe626       O637   2.066       .  S
Fe626       O642   2.147       .  S
Fe626       O636   1.956       .  S
Fe627       O645   2.106       .  S
Fe627       O632   2.030       .  S
Fe627       O639   2.037       .  S
Fe627       O628   2.115       .  S
Fe627       O636   1.955       .  S
O628        C635   1.278       .  A
O629        C643   1.259       .  A
O630        C635   1.271       .  A
O631        C634   1.264       .  A
O632        C644   1.271       .  A
O633        C646   1.282       .  A
C634        O639   1.264       .  A
C634       C1200   1.440       .  S
C635       C1210   1.499       .  S
O637        C640   1.268       .  A
O638        C640   1.265       .  A
C640       C1220   1.473       .  S
O641        C646   1.266       .  A
O642        C644   1.290       .  A
C643        O645   1.272       .  A
C643       C1240   1.513       .  S
C644       C1230   1.493       .  S
C646       C1190   1.509       .  S
Fe647       O663   2.028       .  S
Fe647       O653   2.036       .  S
Fe647       O660   2.054       .  S
Fe647       O652   2.065       .  S
Fe647       O658   1.948       .  S
Fe648       O651   2.041       .  S
Fe648       O655   2.133       .  S
Fe648       O659   2.071       .  S
Fe648       O664   2.164       .  S
Fe648       O658   1.943       .  S
Fe649       O667   2.093       .  S
Fe649       O654   2.036       .  S
Fe649       O661   2.022       .  S
Fe649       O650   2.102       .  S
Fe649       O658   1.943       .  S
O650        C657   1.276       .  A
O651        C665   1.258       .  A
O652        C657   1.270       .  A
O653        C656   1.264       .  A
O654        C666   1.268       .  A
O655        C668   1.285       .  A
C656        O661   1.258       .  A
C656       C1153   1.436       .  S
C657       C1160   1.482       .  S
O659        C662   1.270       .  A
O660        C662   1.267       .  A
C662       C1223   1.480       .  S
O663        C668   1.263       .  A
O664        C666   1.293       .  A
C665        O667   1.269       .  A
C665       C1180   1.492       .  S
C666       C1173   1.495       .  S
C668       C1143   1.502       .  S
Fe669       O675   2.020       .  S
Fe669       O682   2.041       .  S
Fe669       O674   2.077       .  S
Fe669       O680   1.967       .  S
Fe670       O673   2.043       .  S
Fe670       O677   2.119       .  S
Fe670       O681   2.078       .  S
Fe670       O686   2.130       .  S
Fe670       O680   1.962       .  S
Fe671       O689   2.106       .  S
Fe671       O676   2.051       .  S
Fe671       O683   2.048       .  S
Fe671       O672   2.116       .  S
Fe671       O680   1.961       .  S
O672        C679   1.279       .  A
O673        C687   1.260       .  A
O674        C679   1.272       .  A
O675        C678   1.260       .  A
O676        C688   1.272       .  A
C678        O683   1.265       .  A
C678       C1130   1.443       .  S
C679       C1103   1.498       .  S
O681        C684   1.270       .  A
O682        C684   1.262       .  A
C684       C1113   1.468       .  S
O685        C690   1.266       .  A
O686        C688   1.286       .  A
C687        O689   1.271       .  A
C687       C1093   1.511       .  S
C688       C1213   1.491       .  S
C690       C1123   1.501       .  S
Fe691       O697   2.018       .  S
Fe691       O704   2.032       .  S
Fe691       O696   2.110       .  S
Fe691       O702   1.941       .  S
Fe692       O695   2.099       .  S
Fe692       O699   2.089       .  S
Fe692       O703   2.110       .  S
Fe692       O708   2.089       .  S
Fe692       O702   1.952       .  S
Fe693       O711   2.056       .  S
Fe693       O698   2.076       .  S
Fe693       O705   2.059       .  S
Fe693       O694   2.073       .  S
Fe693       O702   1.921       .  S
O694        C701   1.271       .  A
O695        C709   1.271       .  A
O696        C701   1.275       .  A
O697        C700   1.257       .  A
O698        C710   1.277       .  A
C700        O705   1.271       .  A
C700       C1070   1.452       .  S
C701       C1170   1.496       .  S
O703        C706   1.276       .  A
O704        C706   1.263       .  A
C706       C1110   1.478       .  S
O707        C712   1.274       .  A
O708        C710   1.282       .  A
C709        O711   1.263       .  A
C709       C1080   1.504       .  S
C710       C1050   1.479       .  S
C712       C1060   1.511       .  S
Fe713      O1977   2.046       .  S
Fe713       O719   2.026       .  S
Fe713       O726   2.042       .  S
Fe713       O718   2.061       .  S
Fe713       O724   1.960       .  S
Fe714       O717   2.057       .  S
Fe714       O721   2.120       .  S
Fe714       O725   2.076       .  S
Fe714       O730   2.134       .  S
Fe714       O724   1.967       .  S
Fe715       O733   2.107       .  S
Fe715       O720   2.043       .  S
Fe715       O727   2.052       .  S
Fe715       O716   2.117       .  S
Fe715       O724   1.960       .  S
O716        C723   1.279       .  A
O717        C731   1.262       .  A
O718        C723   1.269       .  A
O719        C722   1.260       .  A
O720        C732   1.271       .  A
O721       C1982   1.282       .  A
C722        O727   1.265       .  A
C722       C1033   1.443       .  S
C723       C1233   1.493       .  S
O725        C728   1.269       .  A
O726        C728   1.263       .  A
C728       C1013   1.483       .  S
O729      Fe1961   2.046   1_455  S
O729        C734   1.266       .  A
O730        C732   1.287       .  A
C731        O733   1.274       .  A
C731       C1040   1.511       .  S
C732       C1100   1.488       .  S
C734       O1969   1.282   1_455  A
C734       C1020   1.507       .  S
Fe735      O1999   2.035       .  S
Fe735       O741   2.030       .  S
Fe735       O748   2.044       .  S
Fe735       O740   2.071       .  S
Fe735       O746   1.954       .  S
Fe736       O739   2.048       .  S
Fe736       O743   2.105       .  S
Fe736       O747   2.062       .  S
Fe736       O752   2.118       .  S
Fe736       O746   1.965       .  S
Fe737       O755   2.110       .  S
Fe737       O742   2.049       .  S
Fe737       O749   2.063       .  S
Fe737       O738   2.102       .  S
Fe737       O746   1.954       .  S
O738        C745   1.278       .  A
O739        C753   1.260       .  A
O740        C745   1.273       .  A
O741        C744   1.259       .  A
O742        C754   1.270       .  A
O743       C2004   1.279       .  A
C744        O749   1.267       .  A
C744       C1003   1.450       .  S
C745       C1053   1.490       .  S
O747        C750   1.266       .  A
O748        C750   1.262       .  A
C750       C1010   1.466       .  S
O751      Fe1983   2.035       .  S
O751        C756   1.267       .  A
O752        C754   1.283       .  A
C753        O755   1.275       .  A
C753        C983   1.511       .  S
C754       C1163   1.483       .  S
C756       O1991   1.279       .  A
C756        C990   1.494       .  S
Fe757       O773   2.026       .  S
Fe757       O763   2.046       .  S
Fe757       O770   2.082       .  S
Fe757       O762   2.049       .  S
Fe757       O768   1.954       .  S
Fe758       O761   2.099       .  S
Fe758       O765   2.047       .  S
Fe758       O769   2.103       .  S
Fe758       O774   2.040       .  S
Fe758       O768   1.951       .  S
Fe759       O777   2.051       .  S
Fe759       O764   2.139       .  S
Fe759       O771   2.117       .  S
Fe759       O760   2.066       .  S
Fe759       O768   1.952       .  S
O760        C767   1.269       .  A
O761        C775   1.269       .  A
O762        C767   1.267       .  A
O763        C766   1.266       .  A
O764        C776   1.289       .  A
O765        C778   1.268       .  A
C766        O771   1.279       .  A
C766       C1090   1.507       .  S
C767        C960   1.473       .  S
O769        C772   1.274       .  A
O770        C772   1.272       .  A
C772        C950   1.496       .  S
O773        C778   1.265       .  A
O774        C776   1.273       .  A
C775        O777   1.258       .  A
C775       C1023   1.506       .  S
C776        C970   1.490       .  S
C778       C1203   1.442       .  S
Fe779       O795   2.037       .  S
Fe779       O785   2.034       .  S
Fe779       O792   2.082       .  S
Fe779       O784   2.052       .  S
Fe779       O790   1.958       .  S
Fe780       O783   2.089       .  S
Fe780       O787   2.018       .  S
Fe780       O791   2.109       .  S
Fe780       O796   2.030       .  S
Fe780       O790   1.937       .  S
Fe781       O799   2.043       .  S
Fe781       O786   2.174       .  S
Fe781       O793   2.141       .  S
Fe781       O782   2.071       .  S
Fe781       O790   1.946       .  S
O782        C789   1.270       .  A
O783        C797   1.268       .  A
O784        C789   1.266       .  A
O785        C788   1.265       .  A
O786        C798   1.297       .  A
O787        C800   1.256       .  A
C788        O793   1.288       .  A
C788        C980   1.507       .  S
C789        C963   1.475       .  S
O791        C794   1.277       .  A
O792        C794   1.275       .  A
C794        C930   1.495       .  S
O795        C800   1.264       .  A
O796        C798   1.268       .  A
C797        O799   1.257       .  A
C797       C1063   1.493   1_554  S
C798        C943   1.498       .  S
C800       C1150   1.432       .  S
Fe801       O817   2.026       .  S
Fe801       O814   2.077       .  S
Fe801       O806   2.049       .  S
Fe801       O812   1.959       .  S
Fe802       O805   2.114       .  S
Fe802       O809   2.038       .  S
Fe802       O813   2.110       .  S
Fe802       O818   2.040       .  S
Fe802       O812   1.956       .  S
Fe803       O821   2.043       .  S
Fe803       O808   2.141       .  S
Fe803       O815   2.127       .  S
Fe803       O804   2.074       .  S
Fe803       O812   1.954       .  S
O804        C811   1.270       .  A
O805        C819   1.274       .  A
O806        C811   1.265       .  A
O807        C810   1.266       .  A
O808        C820   1.288       .  A
O809        C822   1.264       .  A
C810       C1043   1.505       .  S
C811        C920   1.467       .  S
O813        C816   1.278       .  A
O814        C816   1.271       .  A
C816        C913   1.495       .  S
O817        C822   1.263       .  A
O818        C820   1.269       .  A
C819        O821   1.259       .  A
C819       C1193   1.510       .  S
C820        C953   1.494       .  S
C822       C1133   1.439       .  S
Fe823       O839   2.025       .  S
Fe823       O836   2.111       .  S
Fe823       O828   2.039       .  S
Fe823       O834   1.933       .  S
Fe824       O827   2.054       .  S
Fe824       O831   2.046       .  S
Fe824       O835   2.070       .  S
Fe824       O840   2.069       .  S
Fe824       O834   1.919       .  S
Fe825       O843   2.099       .  S
Fe825       O830   2.073       .  S
Fe825       O837   2.071       .  S
Fe825       O826   2.092       .  S
Fe825       O834   1.951       .  S
O826        C833   1.271       .  A
O827        C841   1.265       .  A
O828        C833   1.262       .  A
O829        C832   1.281       .  A
O830        C842   1.278       .  A
O831        C844   1.266       .  A
C832       C1183   1.507       .  S
C833        C923   1.475       .  S
O835        C838   1.273       .  A
O836        C838   1.278       .  A
C838        C940   1.496       .  S
O839        C844   1.258       .  A
O840        C842   1.275       .  A
C841        O843   1.267       .  A
C841        C993   1.501   1_554  S
C842        C903   1.465       .  S
C844       C1073   1.454       .  S
Fe845       O861   2.039       .  S
Fe845      O2099   2.034       .  S
Fe845       O858   2.056       .  S
Fe845       O850   2.058       .  S
Fe845       O856   1.947       .  S
Fe846       O849   2.100       .  S
Fe846       O853   2.058       .  S
Fe846       O857   2.094       .  S
Fe846       O862   2.044       .  S
Fe846       O856   1.956       .  S
Fe847       O865   2.056       .  S
Fe847       O852   2.137       .  S
Fe847       O859   2.121       .  S
Fe847       O848   2.080       .  S
Fe847       O856   1.954       .  S
O848        C855   1.271       .  A
O849        C863   1.273       .  A
O850        C855   1.266       .  A
O851      Fe2093   2.034   1_455  S
O851        C854   1.266       .  A
O852        C864   1.287       .  A
O853        C866   1.266       .  A
C854       O2107   1.279   1_455  A
C854       C1083   1.504       .  S
C855        C890   1.485       .  S
O857        C860   1.276       .  A
O858        C860   1.270       .  A
O859       C2102   1.279       .  A
C860        C900   1.479       .  S
O861        C866   1.262       .  A
O862        C864   1.269       .  A
C863        O865   1.262       .  A
C863       C1140   1.506   1_554  S
C864        C933   1.492       .  S
C866       C1000   1.450       .  S
Fe867       O883   2.032       .  S
Fe867      O2121   2.048   1_455  S
Fe867       O880   2.074       .  S
Fe867       O872   2.063       .  S
Fe867       O878   1.959       .  S
Fe868       O871   2.109       .  S
Fe868       O875   2.052       .  S
Fe868       O879   2.114       .  S
Fe868       O884   2.050       .  S
Fe868       O878   1.966       .  S
Fe869       O887   2.049       .  S
Fe869       O874   2.134       .  S
Fe869       O881   2.119       .  S
Fe869       O870   2.080       .  S
Fe869       O878   1.963       .  S
O870        C877   1.270       .  A
O871        C885   1.273       .  A
O872        C877   1.268       .  A
O873      Fe2115   2.048       .  S
O873        C876   1.266       .  A
O874        C886   1.286       .  A
O875        C888   1.265       .  A
C876       O2129   1.280       .  A
C876       C1243   1.507       .  S
C877        C893   1.486       .  S
O879        C882   1.279       .  A
O880        C882   1.272       .  A
O881       C2124   1.280   1_455  A
C882        C973   1.496       .  S
O883        C888   1.262       .  A
O884        C886   1.272       .  A
C885        O887   1.261       .  A
C885       C1120   1.505       .  S
C886        C910   1.492       .  S
C888       C1030   1.447       .  S
C889        C890   1.408       .  A
C889        C894   1.409       .  A
C889       Br896   1.929       .  S
C890       C2139   1.416       .  A
C891       C2138   1.416   1_455  A
C891        C892   1.411       .  A
C891       Br898   1.928       .  S
C892        C893   1.407       .  A
C892       Br897   1.928       .  S
C893       C2142   1.413   1_455  A
C894       C2141   1.413       .  A
C894       Br895   1.925       .  S
C899        C900   1.408       .  A
C899        C904   1.403       .  A
C899       Br906   1.919       .  S
C900        C901   1.417       .  A
C901        C902   1.410       .  A
C901       Br908   1.929       .  S
C902        C903   1.405       .  A
C902       Br907   1.930       .  S
C903        C904   1.404       .  A
C904       Br905   1.927       .  S
C909        C910   1.408       .  A
C909        C914   1.413       .  A
C909       Br916   1.917       .  S
C910        C911   1.411       .  A
C911        C912   1.414       .  A
C911       Br918   1.922       .  S
C912        C913   1.413       .  A
C912       Br917   1.925       .  S
C913        C914   1.406       .  A
C914       Br915   1.915       .  S
C919        C920   1.403       .  A
C919        C924   1.402       .  A
C919       Br926   1.926       .  S
C921        C922   1.409       .  A
C921       Br928   1.929       .  S
C922        C923   1.411       .  A
C922       Br927   1.930       .  S
C924       Br925   1.935       .  S
C929        C930   1.414       .  A
C929        C934   1.412       .  A
C929       Br936   1.921       .  S
C930        C931   1.409       .  A
C931        C932   1.417       .  A
C931       Br938   1.925       .  S
C932        C933   1.413       .  A
C932       Br937   1.921       .  S
C933        C934   1.408       .  A
C934       Br935   1.929       .  S
C939        C940   1.415       .  A
C939        C944   1.426       .  A
C939       Br946   1.922       .  S
C940        C941   1.409       .  A
C941        C942   1.400       .  A
C941       Br948   1.931       .  S
C942        C943   1.411       .  A
C942       Br947   1.917       .  S
C943        C944   1.415       .  A
C944       Br945   1.917       .  S
C949        C950   1.403       .  A
C949        C954   1.412       .  A
C949       Br956   1.914       .  S
C950        C951   1.412       .  A
C951        C952   1.414       .  A
C951       Br958   1.921       .  S
C952        C953   1.411       .  A
C952       Br957   1.927       .  S
C953        C954   1.413       .  A
C954       Br955   1.916       .  S
C959        C960   1.411       .  A
C959        C964   1.403       .  A
C959       Br966   1.922       .  S
C960        C961   1.406       .  A
C961        C962   1.405       .  A
C961       Br968   1.930       .  S
C962        C963   1.413       .  A
C962       Br967   1.924       .  S
C963        C964   1.403       .  A
C964       Br965   1.924       .  S
C969        C970   1.408       .  A
C969        C974   1.415       .  A
C969       Br976   1.925       .  S
C970        C971   1.406       .  A
C971        C972   1.410       .  A
C971       Br978   1.915       .  S
C972        C973   1.407       .  A
C972       Br977   1.913       .  S
C973        C974   1.417       .  A
C974       Br975   1.923       .  S
C979        C980   1.421       .  A
C979        C984   1.418       .  A
C979       Br986   1.930       .  S
C980        C981   1.412       .  A
C981        C982   1.415   1_554  A
C981       Br988   1.928       .  S
C982        C983   1.425       .  A
C982       Br987   1.938       .  S
C983        C984   1.417   1_556  A
C984       Br985   1.934       .  S
C989        C990   1.413       .  A
C989        C994   1.405       .  A
C989       Br996   1.937       .  S
C990        C991   1.415       .  A
C991        C992   1.416       .  A
C991      Br2246   1.932       .  S
C992        C993   1.424       .  A
C992       Br997   1.936   1_556  S
C993        C994   1.417       .  A
C994       Br995   1.938       .  S
Br998      C2239   1.932   1_455  S
C999       C2248   1.405   1_456  A
C999       C1004   1.399       .  A
C999      Br1006   1.927       .  S
C1000      C2247   1.405   1_554  A
C1000      C1001   1.406       .  A
C1001      C1002   1.400   1_554  A
C1001     Br1008   1.930       .  S
C1002      C2251   1.405       .  A
C1002     Br1007   1.925       .  S
C1003      C2250   1.405   1_455  A
C1003      C1004   1.405       .  A
C1004     Br1005   1.928       .  S
C1009      C2258   1.409       .  A
C1009      C1014   1.408       .  A
C1009     Br1016   1.929       .  S
C1010      C2257   1.409   1_455  A
C1010      C1011   1.398       .  A
C1011      C1012   1.401       .  A
C1011     Br1018   1.929       .  S
C1012      C2261   1.419   1_455  A
C1012     Br1017   1.922       .  S
C1013      C2260   1.419       .  A
C1013      C1014   1.411       .  A
C1014     Br1015   1.929       .  S
C1019      C1020   1.422       .  A
C1019      C1024   1.414       .  A
C1019     Br1026   1.929       .  S
C1020      C1021   1.416       .  A
C1021      C1022   1.415       .  A
C1021     Br2276   1.932   1_455  S
C1022      C1023   1.424       .  A
C1022     Br1027   1.939       .  S
C1023      C1024   1.416       .  A
C1024     Br1025   1.938       .  S
Br1028     C2269   1.932       .  S
C1029      C1030   1.404       .  A
C1029      C2282   1.398       .  A
C1029     Br1036   1.930       .  S
C1030      C1031   1.405   1_455  A
C1031      C2280   1.397       .  A
C1031     Br1038   1.923       .  S
C1032      C2279   1.397       .  A
C1032      C1033   1.403       .  A
C1032     Br1037   1.930       .  S
C1033      C1034   1.403       .  A
C1034      C2277   1.398       .  A
C1034     Br1035   1.922       .  S
C1039      C1040   1.417       .  A
C1039      C1044   1.417       .  A
C1039     Br1046   1.931       .  S
C1040      C1041   1.424       .  A
C1041      C1042   1.418       .  A
C1041     Br1048   1.937       .  S
C1042      C1043   1.414       .  A
C1042     Br1047   1.925       .  S
C1043      C1044   1.415       .  A
C1044     Br1045   1.929       .  S
C1049      C1050   1.408       .  A
C1049      C1054   1.415       .  A
C1049     Br1056   1.927       .  S
C1050      C1051   1.406       .  A
C1051      C1052   1.405       .  A
C1051     Br1058   1.927       .  S
C1052      C1053   1.407       .  A
C1052     Br1057   1.911       .  S
C1053      C1054   1.416       .  A
C1054     Br1055   1.928       .  S
C1059      C1060   1.419       .  A
C1059      C1064   1.407   1_556  A
C1059     Br1066   1.919       .  S
C1060      C1061   1.422       .  A
C1061      C1062   1.421       .  A
C1061     Br1068   1.927       .  S
C1062      C1063   1.411       .  A
C1062     Br1067   1.930       .  S
C1063      C1064   1.411   1_556  A
C1064     Br1065   1.942       .  S
C1069      C1070   1.400   1_554  A
C1069     Br1076   1.934       .  S
C1070      C1071   1.416   1_565  A
C1071      C1072   1.396       .  A
C1071     Br1078   1.934       .  S
C1072     Br1077   1.935       .  S
C1073      C1074   1.417       .  A
C1074     Br1075   1.933       .  S
C1079      C1080   1.420   1_554  A
C1079      C1084   1.418       .  A
C1079     Br1086   1.935   1_554  S
C1080      C1081   1.420   1_556  A
C1081      C1082   1.409       .  A
C1081     Br1088   1.939       .  S
C1082      C1083   1.418       .  A
C1082     Br1087   1.938       .  S
C1083      C1084   1.417       .  A
C1084     Br2333   1.930       .  S
Br1085     C2332   1.930       .  S
C1089      C1090   1.420       .  A
C1089      C1094   1.415       .  A
C1089     Br1096   1.931       .  S
C1090      C1091   1.416       .  A
C1091      C1092   1.416       .  A
C1091     Br1098   1.932       .  S
C1092      C1093   1.426       .  A
C1092     Br1097   1.941       .  S
C1093      C1094   1.416       .  A
C1094     Br1095   1.935       .  S
C1099      C1100   1.408       .  A
C1099      C1104   1.413       .  A
C1099     Br1106   1.923       .  S
C1100      C1101   1.406       .  A
C1101      C1102   1.414       .  A
C1101     Br1108   1.921       .  S
C1102      C1103   1.409       .  A
C1102     Br1107   1.913       .  S
C1103      C1104   1.414       .  A
C1104     Br1105   1.923       .  S
C1109      C1114   1.402       .  A
C1109     Br1116   1.935       .  S
C1110      C1111   1.411       .  A
C1111      C1112   1.411       .  A
C1111     Br1118   1.929       .  S
C1112     Br1117   1.929       .  S
C1113      C1114   1.403       .  A
C1114     Br1115   1.927       .  S
C1119      C1120   1.417       .  A
C1119      C1124   1.418       .  A
C1119     Br1126   1.930       .  S
C1120      C1121   1.421       .  A
C1121      C1122   1.413       .  A
C1121     Br1128   1.940       .  S
C1122      C1123   1.413       .  A
C1122     Br1127   1.923   1_565  S
C1123      C1124   1.415       .  A
C1124     Br1125   1.930       .  S
C1129      C1134   1.395       .  A
C1129     Br1136   1.926       .  S
C1130      C1131   1.405       .  A
C1131      C1132   1.393       .  A
C1131     Br1138   1.932       .  S
C1132     Br1137   1.927       .  S
C1133      C1134   1.404       .  A
C1134     Br1135   1.934       .  S
C1139      C1140   1.423       .  A
C1139      C1144   1.415       .  A
C1139     Br1146   1.938   1_556  S
C1140      C1141   1.417       .  A
C1141      C1142   1.415       .  A
C1141     Br1148   1.936       .  S
C1142      C1143   1.420       .  A
C1142     Br1147   1.932       .  S
C1143      C1144   1.413       .  A
C1144     Br1145   1.928       .  S
C1149      C1150   1.402       .  A
C1149      C1154   1.391   1_554  A
C1149     Br1156   1.929       .  S
C1150      C1151   1.406       .  A
C1151      C1152   1.389   1_554  A
C1151     Br1158   1.936       .  S
C1152      C1153   1.403       .  A
C1152     Br1157   1.928       .  S
C1153      C1154   1.407       .  A
C1154     Br1155   1.933       .  S
C1159      C1160   1.414       .  A
C1159      C1164   1.407       .  A
C1159     Br1166   1.921       .  S
C1160      C1161   1.406       .  A
C1161      C1162   1.410       .  A
C1161     Br1168   1.927       .  S
C1162      C1163   1.410       .  A
C1162     Br1167   1.914       .  S
C1163      C1164   1.406       .  A
C1164     Br1165   1.928       .  S
C1169      C1170   1.414       .  A
C1169      C1174   1.426       .  A
C1169     Br1176   1.923       .  S
C1170      C1171   1.409       .  A
C1171      C1172   1.400       .  A
C1171     Br1178   1.923       .  S
C1172      C1173   1.407       .  A
C1172     Br1177   1.917       .  S
C1173      C1174   1.416       .  A
C1174     Br1175   1.919       .  S
C1179      C1180   1.412       .  A
C1179      C1184   1.407   1_556  A
C1179     Br1186   1.944       .  S
C1180      C1181   1.412   1_556  A
C1181      C1182   1.418       .  A
C1181     Br1188   1.930       .  S
C1182      C1183   1.419       .  A
C1182     Br1187   1.929       .  S
C1183      C1184   1.421       .  A
C1184     Br1185   1.923   1_564  S
C1189      C1190   1.414       .  A
C1189      C1194   1.416       .  A
C1189     Br1196   1.930       .  S
C1190      C1191   1.421       .  A
C1191      C1192   1.417       .  A
C1191     Br1198   1.931       .  S
C1192      C1193   1.416       .  A
C1192     Br1197   1.934       .  S
C1193      C1194   1.425       .  A
C1194     Br1195   1.939       .  S
C1199      C1200   1.404       .  A
C1199      C1204   1.392       .  A
C1199     Br1206   1.920       .  S
C1200      C1201   1.402       .  A
C1201      C1202   1.394       .  A
C1201     Br1208   1.935       .  S
C1202      C1203   1.409       .  A
C1202     Br1207   1.922       .  S
C1203      C1204   1.404       .  A
C1204     Br1205   1.934       .  S
C1209      C1210   1.405       .  A
C1209      C1214   1.412       .  A
C1209     Br1216   1.912       .  S
C1210      C1211   1.411       .  A
C1211      C1212   1.413       .  A
C1211     Br1218   1.921       .  S
C1212      C1213   1.411       .  A
C1212     Br1217   1.926       .  S
C1213      C1214   1.409       .  A
C1214     Br1215   1.913       .  S
C1219      C1220   1.405       .  A
C1219      C1224   1.405       .  A
C1219     Br1226   1.932       .  S
C1220      C1221   1.413       .  A
C1221      C1222   1.406       .  A
C1221     Br1228   1.926       .  S
C1222      C1223   1.407       .  A
C1222     Br1227   1.927       .  S
C1223      C1224   1.414       .  A
C1224     Br1225   1.925       .  S
C1229      C1230   1.408       .  A
C1229      C1234   1.418       .  A
C1229     Br1236   1.925       .  S
C1230      C1231   1.408       .  A
C1231      C1232   1.408       .  A
C1231     Br1238   1.910       .  S
C1232      C1233   1.404       .  A
C1232     Br1237   1.919       .  S
C1233      C1234   1.419       .  A
C1234     Br1235   1.925       .  S
C1239      C1240   1.416       .  A
C1239      C1244   1.416       .  A
C1239     Br1246   1.934       .  S
C1240      C1241   1.426       .  A
C1241      C1242   1.417       .  A
C1241     Br1248   1.938       .  S
C1242      C1243   1.416       .  A
C1242     Br2495   1.933       .  S
C1243      C1244   1.420       .  A
C1244     Br1245   1.932       .  S
Br1247     C2490   1.933   1_455  S
Fe1249     O1265   2.045       .  S
Fe1249     O1255   2.028       .  S
Fe1249     O1262   2.050       .  S
Fe1249     O1254   2.080       .  S
Fe1249     O1260   1.961       .  S
Fe1250     O1253   2.054       .  S
Fe1250     O1257   2.124       .  S
Fe1250     O1261   2.066       .  S
Fe1250     O1266   2.147       .  S
Fe1250     O1260   1.956       .  S
Fe1251     O1269   2.106       .  S
Fe1251     O1256   2.030       .  S
Fe1251     O1263   2.037       .  S
Fe1251     O1252   2.115       .  S
Fe1251     O1260   1.955       .  S
O1252      C1259   1.278       .  A
O1253      C1267   1.259       .  A
O1254      C1259   1.271       .  A
O1255      C1258   1.264       .  A
O1256      C1268   1.271       .  A
O1257      C1270   1.282       .  A
C1258      O1263   1.264       .  A
C1258      C1824   1.440       .  S
C1259      C1834   1.499       .  S
O1261      C1264   1.268       .  A
O1262      C1264   1.265       .  A
C1264      C1844   1.473       .  S
O1265      C1270   1.266       .  A
O1266      C1268   1.290       .  A
C1267      O1269   1.272       .  A
C1267      C1864   1.513       .  S
C1268      C1854   1.493       .  S
C1270      C1814   1.508       .  S
Fe1271     O1287   2.028       .  S
Fe1271     O1277   2.036       .  S
Fe1271     O1284   2.054       .  S
Fe1271     O1276   2.065       .  S
Fe1271     O1282   1.948       .  S
Fe1272     O1275   2.041       .  S
Fe1272     O1279   2.133       .  S
Fe1272     O1283   2.071       .  S
Fe1272     O1288   2.164       .  S
Fe1272     O1282   1.943       .  S
Fe1273     O1291   2.093       .  S
Fe1273     O1278   2.036       .  S
Fe1273     O1285   2.022       .  S
Fe1273     O1274   2.102       .  S
Fe1273     O1282   1.943       .  S
O1274      C1281   1.276       .  A
O1275      C1289   1.258       .  A
O1276      C1281   1.270       .  A
O1277      C1280   1.264       .  A
O1278      C1290   1.268       .  A
O1279      C1292   1.284       .  A
C1280      O1285   1.258       .  A
C1280      C1777   1.436       .  S
C1281      C1784   1.482       .  S
O1283      C1286   1.270       .  A
O1284      C1286   1.267       .  A
C1286      C1847   1.480       .  S
O1287      C1292   1.263       .  A
O1288      C1290   1.293       .  A
C1289      O1291   1.269       .  A
C1289      C1804   1.492       .  S
C1290      C1797   1.495       .  S
C1292      C1767   1.502       .  S
Fe1293     O1933   2.046   1_545  S
Fe1293     O1299   2.020       .  S
Fe1293     O1306   2.041       .  S
Fe1293     O1298   2.077       .  S
Fe1293     O1304   1.967       .  S
Fe1294     O1297   2.043       .  S
Fe1294     O1301   2.119       .  S
Fe1294     O1305   2.078       .  S
Fe1294     O1310   2.130       .  S
Fe1294     O1304   1.962       .  S
Fe1295     O1313   2.106       .  S
Fe1295     O1300   2.051       .  S
Fe1295     O1307   2.048       .  S
Fe1295     O1296   2.116       .  S
Fe1295     O1304   1.961       .  S
O1296      C1303   1.279       .  A
O1297      C1311   1.260       .  A
O1298      C1303   1.272       .  A
O1299      C1302   1.260       .  A
O1300      C1312   1.272       .  A
O1301      C1938   1.281   1_545  A
C1302      O1307   1.265       .  A
C1302      C1754   1.443       .  S
C1303      C1727   1.498       .  S
O1305      C1308   1.270       .  A
O1306      C1308   1.262       .  A
C1308      C1737   1.468       .  S
O1309     Fe1917   2.046       .  S
O1309      C1314   1.266       .  A
O1310      C1312   1.286       .  A
C1311      O1313   1.271       .  A
C1311      C1717   1.511       .  S
C1312      C1837   1.491       .  S
C1314      O1925   1.281       .  A
C1314      C1747   1.501       .  S
Fe1315     O1955   2.091       .  S
Fe1315     O1321   2.018       .  S
Fe1315     O1328   2.032       .  S
Fe1315     O1320   2.110       .  S
Fe1315     O1326   1.941       .  S
Fe1316     O1319   2.099       .  S
Fe1316     O1323   2.089       .  S
Fe1316     O1327   2.111       .  S
Fe1316     O1332   2.089       .  S
Fe1316     O1326   1.952       .  S
Fe1317     O1335   2.056       .  S
Fe1317     O1322   2.076       .  S
Fe1317     O1329   2.059       .  S
Fe1317     O1318   2.073       .  S
Fe1317     O1326   1.921       .  S
O1318      C1325   1.271       .  A
O1319      C1333   1.271       .  A
O1320      C1325   1.275       .  A
O1321      C1324   1.257       .  A
O1322      C1334   1.277       .  A
O1323      C1960   1.277       .  A
C1324      O1329   1.271       .  A
C1324      C1694   1.452       .  S
C1325      C1794   1.496       .  S
O1327      C1330   1.276       .  A
O1328      C1330   1.263       .  A
C1330      C1734   1.478       .  S
O1331     Fe1939   2.091   1_545  S
O1331      C1336   1.274       .  A
O1332      C1334   1.282       .  A
C1333      O1335   1.263       .  A
C1333      C1704   1.504       .  S
C1334      C1674   1.479       .  S
C1336      O1947   1.277   1_545  A
C1336      C1684   1.511       .  S
Fe1337     O1343   2.026       .  S
Fe1337     O1350   2.042       .  S
Fe1337     O1342   2.061       .  S
Fe1337     O1348   1.960       .  S
Fe1338     O1341   2.058       .  S
Fe1338     O1345   2.120       .  S
Fe1338     O1349   2.076       .  S
Fe1338     O1354   2.134       .  S
Fe1338     O1348   1.967       .  S
Fe1339     O1357   2.107       .  S
Fe1339     O1344   2.043       .  S
Fe1339     O1351   2.052       .  S
Fe1339     O1340   2.117       .  S
Fe1339     O1348   1.960       .  S
O1340      C1347   1.280       .  A
O1341      C1355   1.262       .  A
O1342      C1347   1.269       .  A
O1343      C1346   1.260       .  A
O1344      C1356   1.271       .  A
C1346      O1351   1.265       .  A
C1346      C1657   1.443       .  S
C1347      C1857   1.493       .  S
O1349      C1352   1.269       .  A
O1350      C1352   1.263       .  A
C1352      C1637   1.483       .  S
O1353      C1358   1.266       .  A
O1354      C1356   1.287       .  A
C1355      O1357   1.274       .  A
C1355      C1664   1.511       .  S
C1356      C1724   1.488       .  S
C1358      C1644   1.507       .  S
Fe1359     O1365   2.030       .  S
Fe1359     O1372   2.044       .  S
Fe1359     O1364   2.071       .  S
Fe1359     O1370   1.954       .  S
Fe1360     O1363   2.048       .  S
Fe1360     O1367   2.105       .  S
Fe1360     O1371   2.062       .  S
Fe1360     O1376   2.118       .  S
Fe1360     O1370   1.965       .  S
Fe1361     O1379   2.110       .  S
Fe1361     O1366   2.049       .  S
Fe1361     O1373   2.063       .  S
Fe1361     O1362   2.101       .  S
Fe1361     O1370   1.954       .  S
O1362      C1369   1.278       .  A
O1363      C1377   1.260       .  A
O1364      C1369   1.273       .  A
O1365      C1368   1.259       .  A
O1366      C1378   1.270       .  A
C1368      O1373   1.267       .  A
C1368      C1627   1.450       .  S
C1369      C1677   1.490       .  S
O1371      C1374   1.266       .  A
O1372      C1374   1.262       .  A
C1374      C1634   1.466       .  S
O1375      C1380   1.267       .  A
O1376      C1378   1.283       .  A
C1377      O1379   1.275       .  A
C1377      C1607   1.511       .  S
C1378      C1787   1.483       .  S
C1380      C1614   1.494   1_455  S
Fe1381     O1397   2.026       .  S
Fe1381     O1387   2.046       .  S
Fe1381     O1394   2.082       .  S
Fe1381     O1386   2.050       .  S
Fe1381     O1392   1.954       .  S
Fe1382     O1385   2.099       .  S
Fe1382     O1389   2.047       .  S
Fe1382     O1393   2.103       .  S
Fe1382     O1398   2.040       .  S
Fe1382     O1392   1.951       .  S
Fe1383     O1401   2.051       .  S
Fe1383     O1388   2.139       .  S
Fe1383     O1395   2.117       .  S
Fe1383     O1384   2.065       .  S
Fe1383     O1392   1.952       .  S
O1384      C1391   1.269       .  A
O1385      C1399   1.269       .  A
O1386      C1391   1.267       .  A
O1387      C1390   1.266       .  A
O1388      C1400   1.289       .  A
O1389      C1402   1.268       .  A
C1390      O1395   1.279       .  A
C1390      C1714   1.506       .  S
C1391      C1584   1.472       .  S
O1393      C1396   1.274       .  A
O1394      C1396   1.272       .  A
C1396      C1574   1.496       .  S
O1397      C1402   1.265       .  A
O1398      C1400   1.273       .  A
C1399      O1401   1.258       .  A
C1399      C1647   1.507       .  S
C1400      C1594   1.490       .  S
C1402      C1827   1.442       .  S
Fe1403     O1419   2.037       .  S
Fe1403     O1409   2.034       .  S
Fe1403     O1416   2.082       .  S
Fe1403     O1408   2.052       .  S
Fe1403     O1414   1.958       .  S
Fe1404     O1407   2.089       .  S
Fe1404     O1411   2.018       .  S
Fe1404     O1415   2.109       .  S
Fe1404     O1420   2.030       .  S
Fe1404     O1414   1.937       .  S
Fe1405     O1423   2.043       .  S
Fe1405     O1410   2.173       .  S
Fe1405     O1417   2.141       .  S
Fe1405     O1406   2.072       .  S
Fe1405     O1414   1.946       .  S
O1406      C1413   1.269       .  A
O1407      C1421   1.268       .  A
O1408      C1413   1.266       .  A
O1409      C1412   1.265       .  A
O1410      C1422   1.297       .  A
O1411      C1424   1.256       .  A
C1412      O1417   1.288       .  A
C1412      C1604   1.507       .  S
C1413      C1587   1.476       .  S
O1415      C1418   1.277       .  A
O1416      C1418   1.275       .  A
C1418      C1554   1.495       .  S
O1419      C1424   1.264       .  A
O1420      C1422   1.268       .  A
C1421      O1423   1.257       .  A
C1421      C1687   1.493   1_554  S
C1422      C1567   1.498       .  S
C1424      C1774   1.433       .  S
Fe1425     O1441   2.026       .  S
Fe1425     O2055   2.046       .  S
Fe1425     O1438   2.077       .  S
Fe1425     O1430   2.049       .  S
Fe1425     O1436   1.960       .  S
Fe1426     O1429   2.114       .  S
Fe1426     O1433   2.038       .  S
Fe1426     O1437   2.110       .  S
Fe1426     O1442   2.041       .  S
Fe1426     O1436   1.956       .  S
Fe1427     O1445   2.043       .  S
Fe1427     O1432   2.141       .  S
Fe1427     O1439   2.127       .  S
Fe1427     O1428   2.074       .  S
Fe1427     O1436   1.954       .  S
O1428      C1435   1.270       .  A
O1429      C1443   1.274       .  A
O1430      C1435   1.265       .  A
O1431     Fe2049   2.046   1_545  S
O1431      C1434   1.266       .  A
O1432      C1444   1.288       .  A
O1433      C1446   1.264       .  A
C1434      O2063   1.282   1_545  A
C1434      C1667   1.505       .  S
C1435      C1544   1.467       .  S
O1437      C1440   1.278       .  A
O1438      C1440   1.271       .  A
O1439      C2058   1.282       .  A
C1440      C1537   1.495       .  S
O1441      C1446   1.263       .  A
O1442      C1444   1.269       .  A
C1443      O1445   1.259       .  A
C1443      C1817   1.510       .  S
C1444      C1577   1.494       .  S
C1446      C1757   1.439       .  S
Fe1447     O1463   2.025       .  S
Fe1447     O2077   2.102   1_545  S
Fe1447     O1460   2.111       .  S
Fe1447     O1452   2.039       .  S
Fe1447     O1458   1.933       .  S
Fe1448     O1451   2.054       .  S
Fe1448     O1455   2.046       .  S
Fe1448     O1459   2.070       .  S
Fe1448     O1464   2.069       .  S
Fe1448     O1458   1.919       .  S
Fe1449     O1467   2.099       .  S
Fe1449     O1454   2.073       .  S
Fe1449     O1461   2.071       .  S
Fe1449     O1450   2.092       .  S
Fe1449     O1458   1.951       .  S
O1450      C1457   1.271       .  A
O1451      C1465   1.265       .  A
O1452      C1457   1.262       .  A
O1453     Fe2071   2.102       .  S
O1453      C1456   1.281       .  A
O1454      C1466   1.278       .  A
O1455      C1468   1.266       .  A
C1456      O2085   1.275       .  A
C1456      C1807   1.507       .  S
C1457      C1547   1.475       .  S
O1459      C1462   1.273       .  A
O1460      C1462   1.278       .  A
O1461      C2080   1.275   1_545  A
C1462      C1564   1.496       .  S
O1463      C1468   1.258       .  A
O1464      C1466   1.275       .  A
C1465      O1467   1.267       .  A
C1465      C1617   1.501   1_554  S
C1466      C1527   1.465       .  S
C1468      C1697   1.454       .  S
Fe1469     O1485   2.039       .  S
Fe1469     O1482   2.056       .  S
Fe1469     O1474   2.058       .  S
Fe1469     O1480   1.947       .  S
Fe1470     O1473   2.100       .  S
Fe1470     O1477   2.058       .  S
Fe1470     O1481   2.094       .  S
Fe1470     O1486   2.044       .  S
Fe1470     O1480   1.956       .  S
Fe1471     O1489   2.055       .  S
Fe1471     O1476   2.137       .  S
Fe1471     O1483   2.121       .  S
Fe1471     O1472   2.080       .  S
Fe1471     O1480   1.954       .  S
O1472      C1479   1.271       .  A
O1473      C1487   1.273       .  A
O1474      C1479   1.266       .  A
O1475      C1478   1.266       .  A
O1476      C1488   1.287       .  A
O1477      C1490   1.266       .  A
C1478      C1707   1.504       .  S
C1479      C1514   1.485       .  S
O1481      C1484   1.276       .  A
O1482      C1484   1.270       .  A
C1484      C1524   1.479       .  S
O1485      C1490   1.262       .  A
O1486      C1488   1.269       .  A
C1487      O1489   1.262       .  A
C1487      C1764   1.506   1_554  S
C1488      C1557   1.492       .  S
C1490      C1624   1.450       .  S
Fe1491     O1507   2.032       .  S
Fe1491     O1504   2.074       .  S
Fe1491     O1496   2.063       .  S
Fe1491     O1502   1.959       .  S
Fe1492     O1495   2.108       .  S
Fe1492     O1499   2.052       .  S
Fe1492     O1503   2.114       .  S
Fe1492     O1508   2.050       .  S
Fe1492     O1502   1.966       .  S
Fe1493     O1511   2.049       .  S
Fe1493     O1498   2.134       .  S
Fe1493     O1505   2.119       .  S
Fe1493     O1494   2.080       .  S
Fe1493     O1502   1.963       .  S
O1494      C1501   1.270       .  A
O1495      C1509   1.273       .  A
O1496      C1501   1.268       .  A
O1497      C1500   1.266       .  A
O1498      C1510   1.286       .  A
O1499      C1512   1.265       .  A
C1500      C1867   1.507       .  S
C1501      C1517   1.486       .  S
O1503      C1506   1.279       .  A
O1504      C1506   1.272       .  A
C1506      C1597   1.496       .  S
O1507      C1512   1.262       .  A
O1508      C1510   1.272       .  A
C1509      O1511   1.261       .  A
C1509      C1744   1.505       .  S
C1510      C1534   1.492       .  S
C1512      C1654   1.447       .  S
C1513      C1514   1.407       .  A
C1513      C1518   1.409       .  A
C1513     Br1520   1.929       .  S
C1515      C1516   1.411       .  A
C1515     Br1522   1.928       .  S
C1516      C1517   1.407       .  A
C1516     Br1521   1.928       .  S
C1518     Br1519   1.925       .  S
C1523      C1524   1.408       .  A
C1523      C1528   1.403       .  A
C1523     Br1530   1.919       .  S
C1524      C1525   1.417       .  A
C1525      C1526   1.410       .  A
C1525     Br1532   1.929       .  S
C1526      C1527   1.405       .  A
C1526     Br1531   1.930       .  S
C1527      C1528   1.404       .  A
C1528     Br1529   1.927       .  S
C1533      C1534   1.408       .  A
C1533      C1538   1.413       .  A
C1533     Br1540   1.917       .  S
C1534      C1535   1.411       .  A
C1535      C1536   1.414       .  A
C1535     Br1542   1.922       .  S
C1536      C1537   1.413       .  A
C1536     Br1541   1.925       .  S
C1537      C1538   1.406       .  A
C1538     Br1539   1.915       .  S
C1543      C1544   1.403       .  A
C1543      C1548   1.402       .  A
C1543     Br1550   1.926       .  S
C1544      C2169   1.409       .  A
C1545      C2168   1.409   1_545  A
C1545      C1546   1.409       .  A
C1545     Br1552   1.929       .  S
C1546      C1547   1.411       .  A
C1546     Br1551   1.930       .  S
C1547      C2172   1.415   1_545  A
C1548      C2171   1.415       .  A
C1548     Br1549   1.935       .  S
C1553      C1554   1.414       .  A
C1553      C1558   1.412       .  A
C1553     Br1560   1.921       .  S
C1554      C1555   1.409       .  A
C1555      C1556   1.417       .  A
C1555     Br1562   1.925       .  S
C1556      C1557   1.413       .  A
C1556     Br1561   1.921       .  S
C1557      C1558   1.408       .  A
C1558     Br1559   1.929       .  S
C1563      C1564   1.415       .  A
C1563      C1568   1.426       .  A
C1563     Br1570   1.922       .  S
C1564      C1565   1.409       .  A
C1565      C1566   1.400       .  A
C1565     Br1572   1.931       .  S
C1566      C1567   1.411       .  A
C1566     Br1571   1.917       .  S
C1567      C1568   1.415       .  A
C1568     Br1569   1.917       .  S
C1573      C1574   1.403       .  A
C1573      C1578   1.412       .  A
C1573     Br1580   1.914       .  S
C1574      C1575   1.412       .  A
C1575      C1576   1.414       .  A
C1575     Br1582   1.921       .  S
C1576      C1577   1.411       .  A
C1576     Br1581   1.927       .  S
C1577      C1578   1.413       .  A
C1578     Br1579   1.916       .  S
C1583      C1584   1.411       .  A
C1583      C1588   1.403       .  A
C1583     Br1590   1.922       .  S
C1584      C1585   1.405       .  A
C1585      C1586   1.405       .  A
C1585     Br1592   1.930       .  S
C1586      C1587   1.413       .  A
C1586     Br1591   1.924       .  S
C1587      C1588   1.404       .  A
C1588     Br1589   1.924       .  S
C1593      C1594   1.408       .  A
C1593      C1598   1.415       .  A
C1593     Br1600   1.925       .  S
C1594      C1595   1.406       .  A
C1595      C1596   1.410       .  A
C1595     Br1602   1.915       .  S
C1596      C1597   1.407       .  A
C1596     Br1601   1.913       .  S
C1597      C1598   1.417       .  A
C1598     Br1599   1.923       .  S
C1603      C1604   1.421       .  A
C1603      C1608   1.418       .  A
C1603     Br1610   1.930       .  S
C1604      C1605   1.412       .  A
C1605      C1606   1.415   1_554  A
C1605     Br1612   1.928       .  S
C1606      C1607   1.425       .  A
C1606     Br1611   1.938       .  S
C1607      C1608   1.417   1_556  A
C1608     Br1609   1.934       .  S
C1613      C1614   1.413       .  A
C1613      C1618   1.405       .  A
C1613     Br1620   1.937       .  S
C1614      C1615   1.415       .  A
C1615      C1616   1.416       .  A
C1616      C1617   1.424       .  A
C1616     Br1621   1.936   1_556  S
C1617      C1618   1.417       .  A
C1618     Br1619   1.938       .  S
C1623      C1628   1.399       .  A
C1623     Br1630   1.927       .  S
C1624      C1625   1.406       .  A
C1625      C1626   1.400   1_554  A
C1625     Br1632   1.930       .  S
C1626     Br1631   1.925       .  S
C1627      C1628   1.405       .  A
C1628     Br1629   1.928       .  S
C1633      C1638   1.408       .  A
C1633     Br1640   1.929       .  S
C1634      C1635   1.398       .  A
C1635      C1636   1.401       .  A
C1635     Br1642   1.929       .  S
C1636     Br1641   1.922       .  S
C1637      C1638   1.412       .  A
C1638     Br1639   1.929       .  S
C1643      C1644   1.422       .  A
C1643      C1648   1.414       .  A
C1643     Br1650   1.929       .  S
C1644      C1645   1.416       .  A
C1645      C1646   1.415       .  A
C1646      C1647   1.424       .  A
C1646     Br1651   1.939       .  S
C1647      C1648   1.416       .  A
C1648     Br1649   1.938       .  S
C1653      C1654   1.404       .  A
C1653     Br1660   1.930       .  S
C1654      C1655   1.405       .  A
C1655     Br1662   1.923       .  S
C1656      C1657   1.403       .  A
C1656     Br1661   1.930       .  S
C1657      C1658   1.403   1_655  A
C1658     Br1659   1.922       .  S
C1663      C1664   1.417       .  A
C1663      C1668   1.417       .  A
C1663     Br1670   1.931       .  S
C1664      C1665   1.424       .  A
C1665      C1666   1.418       .  A
C1665     Br1672   1.937       .  S
C1666      C1667   1.414       .  A
C1666     Br1671   1.925   1_545  S
C1667      C1668   1.415       .  A
C1668     Br1669   1.929       .  S
C1673      C1674   1.408       .  A
C1673      C1678   1.415       .  A
C1673     Br1680   1.927       .  S
C1674      C1675   1.406       .  A
C1675      C1676   1.405       .  A
C1675     Br1682   1.927       .  S
C1676      C1677   1.407       .  A
C1676     Br1681   1.911       .  S
C1677      C1678   1.416       .  A
C1678     Br1679   1.928       .  S
C1683      C1684   1.419       .  A
C1683      C1688   1.407   1_556  A
C1683     Br1690   1.919   1_545  S
C1684      C1685   1.422       .  A
C1685      C1686   1.421       .  A
C1685     Br1692   1.927       .  S
C1686      C1687   1.411       .  A
C1686     Br1691   1.930       .  S
C1687      C1688   1.411   1_556  A
C1688     Br1689   1.942       .  S
C1693      C1694   1.400   1_554  A
C1693      C2322   1.397       .  A
C1693     Br1700   1.934       .  S
C1694      C1695   1.415       .  A
C1695      C1696   1.396       .  A
C1695     Br1702   1.934       .  S
C1696      C2321   1.402   1_556  A
C1696     Br1701   1.935       .  S
C1697      C2320   1.402   1_554  A
C1697      C1698   1.417   1_545  A
C1698      C2317   1.397       .  A
C1698     Br1699   1.933       .  S
C1703      C1704   1.420   1_554  A
C1703      C1708   1.418       .  A
C1703     Br1710   1.935   1_554  S
C1704      C1705   1.420   1_556  A
C1705      C1706   1.409       .  A
C1705     Br1712   1.939       .  S
C1706      C1707   1.418       .  A
C1706     Br1711   1.938       .  S
C1707      C1708   1.417       .  A
C1713      C1714   1.420       .  A
C1713      C1718   1.415       .  A
C1713     Br1720   1.931       .  S
C1714      C1715   1.415       .  A
C1715      C1716   1.416       .  A
C1715     Br1722   1.932       .  S
C1716      C1717   1.426       .  A
C1716     Br1721   1.941       .  S
C1717      C1718   1.416       .  A
C1718     Br1719   1.935       .  S
C1723      C1724   1.408       .  A
C1723      C1728   1.413       .  A
C1723     Br1730   1.923       .  S
C1724      C1725   1.406       .  A
C1725      C1726   1.414       .  A
C1725     Br1732   1.921       .  S
C1726      C1727   1.409       .  A
C1726     Br1731   1.913       .  S
C1727      C1728   1.414       .  A
C1728     Br1729   1.923       .  S
C1733      C2358   1.416   1_545  A
C1733      C1738   1.402       .  A
C1733     Br1740   1.935       .  S
C1734      C2357   1.416       .  A
C1734      C1735   1.411       .  A
C1735      C1736   1.411       .  A
C1735     Br1742   1.929       .  S
C1736      C2361   1.410       .  A
C1736     Br1741   1.929       .  S
C1737      C2360   1.410   1_545  A
C1737      C1738   1.403       .  A
C1738     Br1739   1.927       .  S
C1743      C1744   1.417       .  A
C1743      C1748   1.417       .  A
C1743     Br1750   1.930       .  S
C1744      C1745   1.421       .  A
C1745      C1746   1.413       .  A
C1745     Br1752   1.940       .  S
C1746      C1747   1.413       .  A
C1746     Br1751   1.923       .  S
C1747      C1748   1.415       .  A
C1748     Br1749   1.930       .  S
C1753      C2378   1.409       .  A
C1753      C1758   1.395       .  A
C1753     Br1760   1.926       .  S
C1754      C2377   1.409   1_545  A
C1754      C1755   1.405       .  A
C1755      C1756   1.393       .  A
C1755     Br1762   1.932       .  S
C1756      C2381   1.403   1_545  A
C1756     Br1761   1.927       .  S
C1757      C2380   1.403       .  A
C1757      C1758   1.404       .  A
C1758     Br1759   1.934       .  S
C1763      C1764   1.423   1_554  A
C1763      C1768   1.415   1_554  A
C1763     Br1770   1.938       .  S
C1764      C1765   1.417       .  A
C1765      C1766   1.414       .  A
C1765     Br1772   1.936       .  S
C1766      C1767   1.420       .  A
C1766     Br1771   1.932       .  S
C1767      C1768   1.413       .  A
C1768     Br1769   1.928       .  S
C1773      C1774   1.402       .  A
C1773      C1778   1.391   1_554  A
C1773     Br1780   1.929       .  S
C1774      C1775   1.406       .  A
C1775      C1776   1.389   1_554  A
C1775     Br1782   1.936       .  S
C1776      C1777   1.403       .  A
C1776     Br1781   1.928       .  S
C1777      C1778   1.407       .  A
C1778     Br1779   1.933       .  S
C1783      C1784   1.414       .  A
C1783      C1788   1.407       .  A
C1783     Br1790   1.921       .  S
C1784      C1785   1.406       .  A
C1785      C1786   1.410       .  A
C1785     Br1792   1.927       .  S
C1786      C1787   1.410       .  A
C1786     Br1791   1.914       .  S
C1787      C1788   1.406       .  A
C1788     Br1789   1.928       .  S
C1793      C1794   1.414       .  A
C1793      C1798   1.426       .  A
C1793     Br1800   1.923       .  S
C1794      C1795   1.409       .  A
C1795      C1796   1.400       .  A
C1795     Br1802   1.923       .  S
C1796      C1797   1.407       .  A
C1796     Br1801   1.917       .  S
C1797      C1798   1.416       .  A
C1798     Br1799   1.919       .  S
C1803      C1804   1.412       .  A
C1803      C1808   1.407   1_556  A
C1803     Br1810   1.944       .  S
C1804      C1805   1.412   1_556  A
C1805      C1806   1.418       .  A
C1805     Br1812   1.930       .  S
C1806      C1807   1.419       .  A
C1806     Br1811   1.929       .  S
C1807      C1808   1.421       .  A
C1808     Br1809   1.923   1_554  S
C1813      C1814   1.414       .  A
C1813      C1818   1.416       .  A
C1813     Br1820   1.930       .  S
C1814      C1815   1.421       .  A
C1815      C1816   1.417       .  A
C1815     Br1822   1.931       .  S
C1816      C1817   1.416       .  A
C1816     Br1821   1.934       .  S
C1817      C1818   1.425       .  A
C1818     Br1819   1.939       .  S
C1823      C1824   1.404       .  A
C1823      C1828   1.392       .  A
C1823     Br1830   1.920       .  S
C1824      C1825   1.402       .  A
C1825      C1826   1.394       .  A
C1825     Br1832   1.935       .  S
C1826      C1827   1.409       .  A
C1826     Br1831   1.922       .  S
C1827      C1828   1.404       .  A
C1828     Br1829   1.934       .  S
C1833      C1834   1.405       .  A
C1833      C1838   1.412       .  A
C1833     Br1840   1.912       .  S
C1834      C1835   1.411       .  A
C1835      C1836   1.413       .  A
C1835     Br1842   1.921       .  S
C1836      C1837   1.411       .  A
C1836     Br1841   1.926       .  S
C1837      C1838   1.409       .  A
C1838     Br1839   1.913       .  S
C1843      C1844   1.405       .  A
C1843      C1848   1.404       .  A
C1843     Br1850   1.932       .  S
C1844      C1845   1.413       .  A
C1845      C1846   1.406       .  A
C1845     Br1852   1.926       .  S
C1846      C1847   1.407       .  A
C1846     Br1851   1.927       .  S
C1847      C1848   1.414       .  A
C1848     Br1849   1.925       .  S
C1853      C1854   1.408       .  A
C1853      C1858   1.418       .  A
C1853     Br1860   1.925       .  S
C1854      C1855   1.408       .  A
C1855      C1856   1.408       .  A
C1855     Br1862   1.910       .  S
C1856      C1857   1.404       .  A
C1856     Br1861   1.919       .  S
C1857      C1858   1.419       .  A
C1858     Br1859   1.925       .  S
C1863      C1864   1.416       .  A
C1863      C1868   1.415       .  A
C1863     Br1870   1.934       .  S
C1864      C1865   1.426       .  A
C1865      C1866   1.417       .  A
C1865     Br1872   1.938       .  S
C1866      C1867   1.416       .  A
C1867      C1868   1.420       .  A
C1868     Br1869   1.932       .  S
Fe1873     O1889   2.045       .  S
Fe1873     O1879   2.028       .  S
Fe1873     O1886   2.050       .  S
Fe1873     O1878   2.080       .  S
Fe1873     O1884   1.961       .  S
Fe1874     O1877   2.054       .  S
Fe1874     O1881   2.124       .  S
Fe1874     O1885   2.066       .  S
Fe1874     O1890   2.147       .  S
Fe1874     O1884   1.956       .  S
Fe1875     O1893   2.106       .  S
Fe1875     O1880   2.030       .  S
Fe1875     O1887   2.037       .  S
Fe1875     O1876   2.115       .  S
Fe1875     O1884   1.955       .  S
O1876      C1883   1.278       .  A
O1877      C1891   1.259       .  A
O1878      C1883   1.271       .  A
O1879      C1882   1.264       .  A
O1880      C1892   1.271       .  A
O1881      C1894   1.282       .  A
C1882      O1887   1.264       .  A
C1882      C2448   1.440       .  S
C1883      C2458   1.499       .  S
O1885      C1888   1.268       .  A
O1886      C1888   1.265       .  A
C1888      C2468   1.473       .  S
O1889      C1894   1.266       .  A
O1890      C1892   1.290       .  A
C1891      O1893   1.272       .  A
C1891      C2488   1.513       .  S
C1892      C2478   1.493       .  S
C1894      C2438   1.508       .  S
Fe1895     O1911   2.028       .  S
Fe1895     O1901   2.036       .  S
Fe1895     O1908   2.054       .  S
Fe1895     O1900   2.065       .  S
Fe1895     O1906   1.948       .  S
Fe1896     O1899   2.041       .  S
Fe1896     O1903   2.133       .  S
Fe1896     O1907   2.071       .  S
Fe1896     O1912   2.164       .  S
Fe1896     O1906   1.943       .  S
Fe1897     O1915   2.093       .  S
Fe1897     O1902   2.036       .  S
Fe1897     O1909   2.022       .  S
Fe1897     O1898   2.102       .  S
Fe1897     O1906   1.943       .  S
O1898      C1905   1.276       .  A
O1899      C1913   1.258       .  A
O1900      C1905   1.270       .  A
O1901      C1904   1.264       .  A
O1902      C1914   1.268       .  A
O1903      C1916   1.284       .  A
C1904      O1909   1.258       .  A
C1904      C2401   1.436       .  S
C1905      C2408   1.482       .  S
O1907      C1910   1.270       .  A
O1908      C1910   1.267       .  A
C1910      C2471   1.480       .  S
O1911      C1916   1.263       .  A
O1912      C1914   1.293       .  A
C1913      O1915   1.269       .  A
C1913      C2428   1.492       .  S
C1914      C2421   1.495       .  S
C1916      C2391   1.502       .  S
Fe1917     O1923   2.020       .  S
Fe1917     O1930   2.041       .  S
Fe1917     O1922   2.077       .  S
Fe1917     O1928   1.967       .  S
Fe1918     O1921   2.043       .  S
Fe1918     O1925   2.119       .  S
Fe1918     O1929   2.079       .  S
Fe1918     O1934   2.130       .  S
Fe1918     O1928   1.962       .  S
Fe1919     O1937   2.106       .  S
Fe1919     O1924   2.051       .  S
Fe1919     O1931   2.048       .  S
Fe1919     O1920   2.116       .  S
Fe1919     O1928   1.961       .  S
O1920      C1927   1.279       .  A
O1921      C1935   1.260       .  A
O1922      C1927   1.272       .  A
O1923      C1926   1.260       .  A
O1924      C1936   1.272       .  A
C1926      O1931   1.265       .  A
C1926      C2378   1.443       .  S
C1927      C2351   1.498       .  S
O1929      C1932   1.270       .  A
O1930      C1932   1.262       .  A
C1932      C2361   1.468       .  S
O1933      C1938   1.266       .  A
O1934      C1936   1.286       .  A
C1935      O1937   1.271       .  A
C1935      C2341   1.511       .  S
C1936      C2461   1.491       .  S
C1938      C2371   1.501       .  S
Fe1939     O1945   2.018       .  S
Fe1939     O1952   2.032       .  S
Fe1939     O1944   2.110       .  S
Fe1939     O1950   1.941       .  S
Fe1940     O1943   2.099       .  S
Fe1940     O1947   2.089       .  S
Fe1940     O1951   2.110       .  S
Fe1940     O1956   2.089       .  S
Fe1940     O1950   1.952       .  S
Fe1941     O1959   2.056       .  S
Fe1941     O1946   2.076       .  S
Fe1941     O1953   2.059       .  S
Fe1941     O1942   2.073       .  S
Fe1941     O1950   1.921       .  S
O1942      C1949   1.271       .  A
O1943      C1957   1.271       .  A
O1944      C1949   1.275       .  A
O1945      C1948   1.257       .  A
O1946      C1958   1.277       .  A
C1948      O1953   1.271       .  A
C1948      C2318   1.452       .  S
C1949      C2418   1.496       .  S
O1951      C1954   1.276       .  A
O1952      C1954   1.263       .  A
C1954      C2358   1.478       .  S
O1955      C1960   1.274       .  A
O1956      C1958   1.282       .  A
C1957      O1959   1.263       .  A
C1957      C2328   1.504       .  S
C1958      C2298   1.479       .  S
C1960      C2308   1.511       .  S
Fe1961     O1967   2.026       .  S
Fe1961     O1974   2.042       .  S
Fe1961     O1966   2.061       .  S
Fe1961     O1972   1.960       .  S
Fe1962     O1965   2.057       .  S
Fe1962     O1969   2.120       .  S
Fe1962     O1973   2.076       .  S
Fe1962     O1978   2.134       .  S
Fe1962     O1972   1.967       .  S
Fe1963     O1981   2.107       .  S
Fe1963     O1968   2.043       .  S
Fe1963     O1975   2.052       .  S
Fe1963     O1964   2.117       .  S
Fe1963     O1972   1.960       .  S
O1964      C1971   1.280       .  A
O1965      C1979   1.262       .  A
O1966      C1971   1.269       .  A
O1967      C1970   1.260       .  A
O1968      C1980   1.271       .  A
C1970      O1975   1.265       .  A
C1970      C2281   1.443       .  S
C1971      C2481   1.493       .  S
O1973      C1976   1.269       .  A
O1974      C1976   1.263       .  A
C1976      C2261   1.483       .  S
O1977      C1982   1.266       .  A
O1978      C1980   1.287       .  A
C1979      O1981   1.274       .  A
C1979      C2288   1.511       .  S
C1980      C2348   1.488       .  S
C1982      C2268   1.507       .  S
Fe1983     O1989   2.030       .  S
Fe1983     O1996   2.044       .  S
Fe1983     O1988   2.071       .  S
Fe1983     O1994   1.954       .  S
Fe1984     O1987   2.048       .  S
Fe1984     O1991   2.105       .  S
Fe1984     O1995   2.062       .  S
Fe1984     O2000   2.118       .  S
Fe1984     O1994   1.965       .  S
Fe1985     O2003   2.110       .  S
Fe1985     O1990   2.049       .  S
Fe1985     O1997   2.063       .  S
Fe1985     O1986   2.101       .  S
Fe1985     O1994   1.954       .  S
O1986      C1993   1.278       .  A
O1987      C2001   1.260       .  A
O1988      C1993   1.273       .  A
O1989      C1992   1.259       .  A
O1990      C2002   1.270       .  A
C1992      O1997   1.267       .  A
C1992      C2251   1.450       .  S
C1993      C2301   1.490       .  S
O1995      C1998   1.266       .  A
O1996      C1998   1.262       .  A
C1998      C2258   1.466       .  S
O1999      C2004   1.267       .  A
O2000      C2002   1.283       .  A
C2001      O2003   1.275       .  A
C2001      C2231   1.511       .  S
C2002      C2411   1.483       .  S
C2004      C2238   1.494   1_455  S
Fe2005     O2021   2.026       .  S
Fe2005     O2011   2.046       .  S
Fe2005     O2018   2.082       .  S
Fe2005     O2010   2.050       .  S
Fe2005     O2016   1.954       .  S
Fe2006     O2009   2.099       .  S
Fe2006     O2013   2.047       .  S
Fe2006     O2017   2.103       .  S
Fe2006     O2022   2.040       .  S
Fe2006     O2016   1.951       .  S
Fe2007     O2025   2.051       .  S
Fe2007     O2012   2.139       .  S
Fe2007     O2019   2.117       .  S
Fe2007     O2008   2.065       .  S
Fe2007     O2016   1.952       .  S
O2008      C2015   1.269       .  A
O2009      C2023   1.269       .  A
O2010      C2015   1.267       .  A
O2011      C2014   1.266       .  A
O2012      C2024   1.289       .  A
O2013      C2026   1.268       .  A
C2014      O2019   1.279       .  A
C2014      C2338   1.507       .  S
C2015      C2208   1.472       .  S
O2017      C2020   1.274       .  A
O2018      C2020   1.272       .  A
C2020      C2198   1.496       .  S
O2021      C2026   1.265       .  A
O2022      C2024   1.273       .  A
C2023      O2025   1.258       .  A
C2023      C2271   1.507       .  S
C2024      C2218   1.490       .  S
C2026      C2451   1.442       .  S
Fe2027     O2043   2.037       .  S
Fe2027     O2033   2.034       .  S
Fe2027     O2040   2.082       .  S
Fe2027     O2032   2.052       .  S
Fe2027     O2038   1.958       .  S
Fe2028     O2031   2.089       .  S
Fe2028     O2035   2.018       .  S
Fe2028     O2039   2.109       .  S
Fe2028     O2044   2.030       .  S
Fe2028     O2038   1.937       .  S
Fe2029     O2047   2.043       .  S
Fe2029     O2034   2.173       .  S
Fe2029     O2041   2.141       .  S
Fe2029     O2030   2.071       .  S
Fe2029     O2038   1.946       .  S
O2030      C2037   1.269       .  A
O2031      C2045   1.268       .  A
O2032      C2037   1.266       .  A
O2033      C2036   1.265       .  A
O2034      C2046   1.297       .  A
O2035      C2048   1.256       .  A
C2036      O2041   1.288       .  A
C2036      C2228   1.507       .  S
C2037      C2211   1.476       .  S
O2039      C2042   1.277       .  A
O2040      C2042   1.275       .  A
C2042      C2178   1.495       .  S
O2043      C2048   1.264       .  A
O2044      C2046   1.268       .  A
C2045      O2047   1.257       .  A
C2045      C2311   1.493   1_554  S
C2046      C2191   1.498       .  S
C2048      C2398   1.433       .  S
Fe2049     O2065   2.026       .  S
Fe2049     O2062   2.077       .  S
Fe2049     O2054   2.049       .  S
Fe2049     O2060   1.960       .  S
Fe2050     O2053   2.114       .  S
Fe2050     O2057   2.038       .  S
Fe2050     O2061   2.110       .  S
Fe2050     O2066   2.041       .  S
Fe2050     O2060   1.956       .  S
Fe2051     O2069   2.043       .  S
Fe2051     O2056   2.141       .  S
Fe2051     O2063   2.127       .  S
Fe2051     O2052   2.074       .  S
Fe2051     O2060   1.954       .  S
O2052      C2059   1.270       .  A
O2053      C2067   1.274       .  A
O2054      C2059   1.265       .  A
O2055      C2058   1.266       .  A
O2056      C2068   1.288       .  A
O2057      C2070   1.264       .  A
C2058      C2291   1.505       .  S
C2059      C2168   1.467       .  S
O2061      C2064   1.278       .  A
O2062      C2064   1.271       .  A
C2064      C2161   1.495       .  S
O2065      C2070   1.263       .  A
O2066      C2068   1.269       .  A
C2067      O2069   1.259       .  A
C2067      C2441   1.510       .  S
C2068      C2201   1.494       .  S
C2070      C2381   1.439       .  S
Fe2071     O2087   2.025       .  S
Fe2071     O2084   2.111       .  S
Fe2071     O2076   2.039       .  S
Fe2071     O2082   1.933       .  S
Fe2072     O2075   2.054       .  S
Fe2072     O2079   2.046       .  S
Fe2072     O2083   2.070       .  S
Fe2072     O2088   2.069       .  S
Fe2072     O2082   1.919       .  S
Fe2073     O2091   2.099       .  S
Fe2073     O2078   2.073       .  S
Fe2073     O2085   2.071       .  S
Fe2073     O2074   2.092       .  S
Fe2073     O2082   1.951       .  S
O2074      C2081   1.271       .  A
O2075      C2089   1.265       .  A
O2076      C2081   1.262       .  A
O2077      C2080   1.281       .  A
O2078      C2090   1.278       .  A
O2079      C2092   1.266       .  A
C2080      C2431   1.507       .  S
C2081      C2171   1.475       .  S
O2083      C2086   1.273       .  A
O2084      C2086   1.278       .  A
C2086      C2188   1.496       .  S
O2087      C2092   1.258       .  A
O2088      C2090   1.275       .  A
C2089      O2091   1.267       .  A
C2089      C2241   1.501   1_554  S
C2090      C2151   1.465       .  S
C2092      C2321   1.454       .  S
Fe2093     O2109   2.039       .  S
Fe2093     O2106   2.056       .  S
Fe2093     O2098   2.058       .  S
Fe2093     O2104   1.947       .  S
Fe2094     O2097   2.100       .  S
Fe2094     O2101   2.058       .  S
Fe2094     O2105   2.094       .  S
Fe2094     O2110   2.044       .  S
Fe2094     O2104   1.956       .  S
Fe2095     O2113   2.056       .  S
Fe2095     O2100   2.137       .  S
Fe2095     O2107   2.121       .  S
Fe2095     O2096   2.080       .  S
Fe2095     O2104   1.954       .  S
O2096      C2103   1.271       .  A
O2097      C2111   1.273       .  A
O2098      C2103   1.266       .  A
O2099      C2102   1.266       .  A
O2100      C2112   1.287       .  A
O2101      C2114   1.266       .  A
C2102      C2331   1.504       .  S
C2103      C2138   1.485       .  S
O2105      C2108   1.276       .  A
O2106      C2108   1.270       .  A
C2108      C2148   1.479       .  S
O2109      C2114   1.262       .  A
O2110      C2112   1.269       .  A
C2111      O2113   1.262       .  A
C2111      C2388   1.506   1_554  S
C2112      C2181   1.492       .  S
C2114      C2248   1.450       .  S
Fe2115     O2131   2.032       .  S
Fe2115     O2128   2.074       .  S
Fe2115     O2120   2.063       .  S
Fe2115     O2126   1.959       .  S
Fe2116     O2119   2.108       .  S
Fe2116     O2123   2.052       .  S
Fe2116     O2127   2.114       .  S
Fe2116     O2132   2.050       .  S
Fe2116     O2126   1.966       .  S
Fe2117     O2135   2.049       .  S
Fe2117     O2122   2.134       .  S
Fe2117     O2129   2.119       .  S
Fe2117     O2118   2.080       .  S
Fe2117     O2126   1.964       .  S
O2118      C2125   1.270       .  A
O2119      C2133   1.273       .  A
O2120      C2125   1.268       .  A
O2121      C2124   1.266       .  A
O2122      C2134   1.286       .  A
O2123      C2136   1.265       .  A
C2124      C2491   1.507       .  S
C2125      C2141   1.486       .  S
O2127      C2130   1.279       .  A
O2128      C2130   1.272       .  A
C2130      C2221   1.496       .  S
O2131      C2136   1.262       .  A
O2132      C2134   1.272       .  A
C2133      O2135   1.261       .  A
C2133      C2368   1.505       .  S
C2134      C2158   1.492       .  S
C2136      C2278   1.447       .  S
C2137      C2138   1.408       .  A
C2137      C2142   1.409       .  A
C2137     Br2144   1.929       .  S
C2139      C2140   1.411       .  A
C2139     Br2146   1.928       .  S
C2140      C2141   1.407       .  A
C2140     Br2145   1.928       .  S
C2142     Br2143   1.925       .  S
C2147      C2148   1.408       .  A
C2147      C2152   1.403       .  A
C2147     Br2154   1.919       .  S
C2148      C2149   1.417       .  A
C2149      C2150   1.410       .  A
C2149     Br2156   1.929       .  S
C2150      C2151   1.405       .  A
C2150     Br2155   1.930       .  S
C2151      C2152   1.404       .  A
C2152     Br2153   1.927       .  S
C2157      C2158   1.408       .  A
C2157      C2162   1.413       .  A
C2157     Br2164   1.917       .  S
C2158      C2159   1.411       .  A
C2159      C2160   1.414       .  A
C2159     Br2166   1.922       .  S
C2160      C2161   1.413       .  A
C2160     Br2165   1.925       .  S
C2161      C2162   1.406       .  A
C2162     Br2163   1.915       .  S
C2167      C2168   1.403       .  A
C2167      C2172   1.402       .  A
C2167     Br2174   1.926       .  S
C2169      C2170   1.409       .  A
C2169     Br2176   1.929       .  S
C2170      C2171   1.411       .  A
C2170     Br2175   1.930       .  S
C2172     Br2173   1.935       .  S
C2177      C2178   1.414       .  A
C2177      C2182   1.412       .  A
C2177     Br2184   1.921       .  S
C2178      C2179   1.409       .  A
C2179      C2180   1.417       .  A
C2179     Br2186   1.925       .  S
C2180      C2181   1.413       .  A
C2180     Br2185   1.921       .  S
C2181      C2182   1.408       .  A
C2182     Br2183   1.929       .  S
C2187      C2188   1.415       .  A
C2187      C2192   1.426       .  A
C2187     Br2194   1.922       .  S
C2188      C2189   1.409       .  A
C2189      C2190   1.400       .  A
C2189     Br2196   1.931       .  S
C2190      C2191   1.411       .  A
C2190     Br2195   1.917       .  S
C2191      C2192   1.415       .  A
C2192     Br2193   1.917       .  S
C2197      C2198   1.403       .  A
C2197      C2202   1.412       .  A
C2197     Br2204   1.914       .  S
C2198      C2199   1.413       .  A
C2199      C2200   1.414       .  A
C2199     Br2206   1.921       .  S
C2200      C2201   1.411       .  A
C2200     Br2205   1.927       .  S
C2201      C2202   1.413       .  A
C2202     Br2203   1.916       .  S
C2207      C2208   1.411       .  A
C2207      C2212   1.403       .  A
C2207     Br2214   1.922       .  S
C2208      C2209   1.405       .  A
C2209      C2210   1.405       .  A
C2209     Br2216   1.930       .  S
C2210      C2211   1.413       .  A
C2210     Br2215   1.924       .  S
C2211      C2212   1.404       .  A
C2212     Br2213   1.924       .  S
C2217      C2218   1.408       .  A
C2217      C2222   1.415       .  A
C2217     Br2224   1.925       .  S
C2218      C2219   1.406       .  A
C2219      C2220   1.410       .  A
C2219     Br2226   1.915       .  S
C2220      C2221   1.407       .  A
C2220     Br2225   1.913       .  S
C2221      C2222   1.417       .  A
C2222     Br2223   1.923       .  S
C2227      C2228   1.421       .  A
C2227      C2232   1.418       .  A
C2227     Br2234   1.930       .  S
C2228      C2229   1.412       .  A
C2229      C2230   1.415   1_554  A
C2229     Br2236   1.928       .  S
C2230      C2231   1.425       .  A
C2230     Br2235   1.938       .  S
C2231      C2232   1.417   1_556  A
C2232     Br2233   1.934       .  S
C2237      C2238   1.413       .  A
C2237      C2242   1.405       .  A
C2237     Br2244   1.937       .  S
C2238      C2239   1.415       .  A
C2239      C2240   1.416       .  A
C2240      C2241   1.424       .  A
C2240     Br2245   1.936   1_556  S
C2241      C2242   1.417       .  A
C2242     Br2243   1.938       .  S
C2247      C2252   1.399       .  A
C2247     Br2254   1.927       .  S
C2248      C2249   1.406       .  A
C2249      C2250   1.400   1_554  A
C2249     Br2256   1.930       .  S
C2250     Br2255   1.925       .  S
C2251      C2252   1.405       .  A
C2252     Br2253   1.928       .  S
C2257      C2262   1.408       .  A
C2257     Br2264   1.929       .  S
C2258      C2259   1.398       .  A
C2259      C2260   1.401       .  A
C2259     Br2266   1.929       .  S
C2260     Br2265   1.922       .  S
C2261      C2262   1.411       .  A
C2262     Br2263   1.929       .  S
C2267      C2268   1.422       .  A
C2267      C2272   1.414       .  A
C2267     Br2274   1.929       .  S
C2268      C2269   1.416       .  A
C2269      C2270   1.415       .  A
C2270      C2271   1.424       .  A
C2270     Br2275   1.939       .  S
C2271      C2272   1.416       .  A
C2272     Br2273   1.938       .  S
C2277      C2278   1.404       .  A
C2277     Br2284   1.930       .  S
C2278      C2279   1.405       .  A
C2279     Br2286   1.923       .  S
C2280      C2281   1.403       .  A
C2280     Br2285   1.930       .  S
C2281      C2282   1.403   1_655  A
C2282     Br2283   1.922       .  S
C2287      C2288   1.417       .  A
C2287      C2292   1.417       .  A
C2287     Br2294   1.931       .  S
C2288      C2289   1.424       .  A
C2289      C2290   1.418       .  A
C2289     Br2296   1.937       .  S
C2290      C2291   1.414       .  A
C2290     Br2295   1.925       .  S
C2291      C2292   1.415       .  A
C2292     Br2293   1.929       .  S
C2297      C2298   1.408       .  A
C2297      C2302   1.415       .  A
C2297     Br2304   1.927       .  S
C2298      C2299   1.406       .  A
C2299      C2300   1.405       .  A
C2299     Br2306   1.927       .  S
C2300      C2301   1.407       .  A
C2300     Br2305   1.911       .  S
C2301      C2302   1.416       .  A
C2302     Br2303   1.928       .  S
C2307      C2308   1.419       .  A
C2307      C2312   1.407   1_556  A
C2307     Br2314   1.919       .  S
C2308      C2309   1.422       .  A
C2309      C2310   1.421       .  A
C2309     Br2316   1.927       .  S
C2310      C2311   1.411       .  A
C2310     Br2315   1.930       .  S
C2311      C2312   1.411   1_556  A
C2312     Br2313   1.942       .  S
C2317      C2318   1.400   1_554  A
C2317     Br2324   1.934       .  S
C2318      C2319   1.415   1_565  A
C2319      C2320   1.396       .  A
C2319     Br2326   1.934       .  S
C2320     Br2325   1.935       .  S
C2321      C2322   1.417       .  A
C2322     Br2323   1.933       .  S
C2327      C2328   1.420   1_554  A
C2327      C2332   1.418       .  A
C2327     Br2334   1.935   1_554  S
C2328      C2329   1.420   1_556  A
C2329      C2330   1.409       .  A
C2329     Br2336   1.939       .  S
C2330      C2331   1.418       .  A
C2330     Br2335   1.938       .  S
C2331      C2332   1.417       .  A
C2337      C2338   1.420       .  A
C2337      C2342   1.415       .  A
C2337     Br2344   1.931       .  S
C2338      C2339   1.415       .  A
C2339      C2340   1.416       .  A
C2339     Br2346   1.932       .  S
C2340      C2341   1.426       .  A
C2340     Br2345   1.941       .  S
C2341      C2342   1.416       .  A
C2342     Br2343   1.935       .  S
C2347      C2348   1.408       .  A
C2347      C2352   1.413       .  A
C2347     Br2354   1.923       .  S
C2348      C2349   1.406       .  A
C2349      C2350   1.414       .  A
C2349     Br2356   1.921       .  S
C2350      C2351   1.409       .  A
C2350     Br2355   1.913       .  S
C2351      C2352   1.414       .  A
C2352     Br2353   1.923       .  S
C2357      C2362   1.402       .  A
C2357     Br2364   1.935       .  S
C2358      C2359   1.411       .  A
C2359      C2360   1.411       .  A
C2359     Br2366   1.929       .  S
C2360     Br2365   1.929       .  S
C2361      C2362   1.403       .  A
C2362     Br2363   1.927       .  S
C2367      C2368   1.417       .  A
C2367      C2372   1.418       .  A
C2367     Br2374   1.930       .  S
C2368      C2369   1.421       .  A
C2369      C2370   1.413       .  A
C2369     Br2376   1.940       .  S
C2370      C2371   1.413       .  A
C2370     Br2375   1.923   1_565  S
C2371      C2372   1.415       .  A
C2372     Br2373   1.930       .  S
C2377      C2382   1.395       .  A
C2377     Br2384   1.926       .  S
C2378      C2379   1.405       .  A
C2379      C2380   1.393       .  A
C2379     Br2386   1.932       .  S
C2380     Br2385   1.927       .  S
C2381      C2382   1.404       .  A
C2382     Br2383   1.934       .  S
C2387      C2388   1.423   1_554  A
C2387      C2392   1.415   1_554  A
C2387     Br2394   1.938       .  S
C2388      C2389   1.417       .  A
C2389      C2390   1.415       .  A
C2389     Br2396   1.936       .  S
C2390      C2391   1.420       .  A
C2390     Br2395   1.932       .  S
C2391      C2392   1.413       .  A
C2392     Br2393   1.928       .  S
C2397      C2398   1.402       .  A
C2397      C2402   1.391   1_554  A
C2397     Br2404   1.929       .  S
C2398      C2399   1.406       .  A
C2399      C2400   1.389   1_554  A
C2399     Br2406   1.936       .  S
C2400      C2401   1.403       .  A
C2400     Br2405   1.928       .  S
C2401      C2402   1.407       .  A
C2402     Br2403   1.933       .  S
C2407      C2408   1.414       .  A
C2407      C2412   1.407       .  A
C2407     Br2414   1.921       .  S
C2408      C2409   1.406       .  A
C2409      C2410   1.410       .  A
C2409     Br2416   1.927       .  S
C2410      C2411   1.410       .  A
C2410     Br2415   1.914       .  S
C2411      C2412   1.406       .  A
C2412     Br2413   1.928       .  S
C2417      C2418   1.414       .  A
C2417      C2422   1.426       .  A
C2417     Br2424   1.923       .  S
C2418      C2419   1.409       .  A
C2419      C2420   1.400       .  A
C2419     Br2426   1.923       .  S
C2420      C2421   1.407       .  A
C2420     Br2425   1.917       .  S
C2421      C2422   1.416       .  A
C2422     Br2423   1.919       .  S
C2427      C2428   1.412       .  A
C2427      C2432   1.407   1_556  A
C2427     Br2434   1.944       .  S
C2428      C2429   1.412   1_556  A
C2429      C2430   1.418       .  A
C2429     Br2436   1.930       .  S
C2430      C2431   1.419       .  A
C2430     Br2435   1.929       .  S
C2431      C2432   1.421       .  A
C2432     Br2433   1.923   1_564  S
C2437      C2438   1.414       .  A
C2437      C2442   1.416       .  A
C2437     Br2444   1.930       .  S
C2438      C2439   1.421       .  A
C2439      C2440   1.417       .  A
C2439     Br2446   1.931       .  S
C2440      C2441   1.416       .  A
C2440     Br2445   1.934       .  S
C2441      C2442   1.425       .  A
C2442     Br2443   1.939       .  S
C2447      C2448   1.404       .  A
C2447      C2452   1.392       .  A
C2447     Br2454   1.920       .  S
C2448      C2449   1.402       .  A
C2449      C2450   1.394       .  A
C2449     Br2456   1.935       .  S
C2450      C2451   1.409       .  A
C2450     Br2455   1.922       .  S
C2451      C2452   1.404       .  A
C2452     Br2453   1.934       .  S
C2457      C2458   1.405       .  A
C2457      C2462   1.412       .  A
C2457     Br2464   1.912       .  S
C2458      C2459   1.411       .  A
C2459      C2460   1.413       .  A
C2459     Br2466   1.921       .  S
C2460      C2461   1.411       .  A
C2460     Br2465   1.926       .  S
C2461      C2462   1.409       .  A
C2462     Br2463   1.913       .  S
C2467      C2468   1.405       .  A
C2467      C2472   1.405       .  A
C2467     Br2474   1.932       .  S
C2468      C2469   1.413       .  A
C2469      C2470   1.406       .  A
C2469     Br2476   1.926       .  S
C2470      C2471   1.407       .  A
C2470     Br2475   1.927       .  S
C2471      C2472   1.414       .  A
C2472     Br2473   1.925       .  S
C2477      C2478   1.408       .  A
C2477      C2482   1.418       .  A
C2477     Br2484   1.925       .  S
C2478      C2479   1.408       .  A
C2479      C2480   1.408       .  A
C2479     Br2486   1.910       .  S
C2480      C2481   1.404       .  A
C2480     Br2485   1.919       .  S
C2481      C2482   1.419       .  A
C2482     Br2483   1.925       .  S
C2487      C2488   1.416       .  A
C2487      C2492   1.416       .  A
C2487     Br2494   1.934       .  S
C2488      C2489   1.426       .  A
C2489      C2490   1.417       .  A
C2489     Br2496   1.938       .  S
C2490      C2491   1.416       .  A
C2491      C2492   1.420       .  A
C2492     Br2493   1.932       .  S
