geometry optimzed in LAMMPS
_audit_creation_date              2020-11-30 
_audit_creation_method            'lammps2cif' 
_symmetry_space_group_name_H-M    'P1' 
_symmetry_Int_Tables_number       1 
_symmetry_cell_setting            triclinic 
loop_ 
_symmetry_equiv_pos_as_xyz 
  x,y,z 
_cell_length_a                    56.68967914 
_cell_length_b                    56.57249497837684 
_cell_length_c                    31.723970147081605 
_cell_angle_alpha                 89.9911131956188 
_cell_angle_beta                  90.00921147379219 
_cell_angle_gamma                 120.1854152433927 
loop_ 
_atom_site_label 
_atom_site_type_symbol 
_atom_site_fract_x 
_atom_site_fract_y 
_atom_site_fract_z 
_atom_site_charge 
O1          O  0.05298409  0.25529849  0.22391298    -0.56100
C2          C  0.00732325  0.19030949  0.25436875     0.76500
O3          O  0.03561604  0.20183139  0.11647645    -0.57300
C4          C  0.06010561  0.26933306  0.19064493     0.76500
C5          C  0.09047101  0.20916921  0.23641057     0.78900
Cd6        Cd  0.04712571  0.21321961  0.19361781     1.37500
O7          O  0.01387072  0.21298288  0.23734631    -0.56100
O8          O  0.08015483  0.22275473  0.25030640    -0.54900
C9          C  0.01035679  0.18491891  0.12237437     0.78800
O10         O  0.08216763  0.19822006  0.20036304    -0.57300
O11         O  0.01866744  0.17720087  0.24167553    -0.55800
O12         O  0.06408325  0.25852614  0.15835713    -0.55700
O13         O  0.00301412  0.17898182  0.16028649    -0.54900
O14         O  0.19076822  0.21626957  0.24572395    -0.56100
C15         C  0.20317108  0.26736952  0.30104714     0.76500
O16         O  0.12103567  0.22000390  0.29529945    -0.57300
C17         C  0.17723683  0.19152326  0.23418246     0.76500
C18         C  0.17059008  0.18288771  0.03473515     0.78900
Cd19       Cd  0.16006090  0.21119266  0.29897258     1.37500
O20         O  0.19375468  0.25486640  0.26676845    -0.56100
O21         O  0.17863020  0.18380399  0.99748161    -0.54900
C22         C  0.11164455  0.20730389  0.26078118     0.78800
O23         O  0.15506002  0.19281620  0.04050325    -0.57300
O24         O  0.19086314  0.25504289  0.00082263    -0.55800
O25         O  0.15512054  0.17550982  0.25307288    -0.55700
O26         O  0.12201404  0.19356136  0.24765558    -0.54900
O27         O  0.28574014  0.30330007  0.01603931    -0.56100
C28         C  0.22916707  0.29313849  0.30236186     0.76500
O29         O  0.29809993  0.38612118  0.31106878    -0.57300
C30         C  0.30849423  0.31961799  0.03269208     0.76500
C31         C  0.31405632  0.32838906  0.23486169     0.78900
Cd32       Cd  0.28521537  0.33638854  0.30582267     1.37500
O33         O  0.24269737  0.30063816  0.33606364    -0.56100
O34         O  0.31972215  0.32680279  0.27284537    -0.54900
C35         C  0.28834128  0.38368239  0.01439764     0.78800
O36         O  0.29719379  0.33669806  0.22883086    -0.57300
O37         O  0.24051596  0.30728788  0.26969893    -0.55800
O38         O  0.32141441  0.34415649  0.01987977    -0.55700
O39         O  0.27674992  0.36005172  0.02994959    -0.54900
O40         O  0.28139826  0.47806082  0.02285010    -0.56100
C41         C  0.22947538  0.43871787  0.07849038     0.76500
O42         O  0.27777854  0.40367318  0.07342897    -0.57300
C43         C  0.30603091  0.48864132  0.01125787     0.76500
C44         C  0.31518415  0.49041510  0.14487113     0.78900
Cd45       Cd  0.28552004  0.45147157  0.07603674     1.37500
O46         O  0.24119252  0.43979149  0.04419567    -0.56100
O47         O  0.31274902  0.49745889  0.10822345    -0.54900
C48         C  0.28951204  0.40673433  0.03804116     0.78800
O49         O  0.30582243  0.46491044  0.15026014    -0.57300
O50         O  0.24240722  0.44037453  0.11196827    -0.55800
O51         O  0.32146159  0.48192434  0.03027278    -0.55700
O52         O  0.30178306  0.43063830  0.02341430    -0.54900
O53         O  0.19718354  0.44692579  0.11213301    -0.56100
C54         C  0.17964794  0.49321518  0.14081823     0.76500
O55         O  0.16409269  0.46468140  0.00405910    -0.57300
C56         C  0.20391897  0.43924953  0.07932972     0.76500
C57         C  0.11327382  0.40892421  0.12339519     0.78900
Cd58       Cd  0.16115617  0.45264602  0.08102967     1.37500
O59         O  0.19530697  0.48615884  0.12374135    -0.56100
O60         O  0.13636265  0.42240891  0.14024947    -0.54900
C61         C  0.17006231  0.48935581  0.00956932     0.78800
O62         O  0.11157567  0.41474876  0.08514537    -0.57300
O63         O  0.15511680  0.48219929  0.12834854    -0.55800
O64         O  0.18919386  0.43503583  0.04690632    -0.55700
O65         O  0.16836093  0.49594301  0.04698843    -0.54900
O66         O  0.05811284  0.30510258  0.15470395    -0.56100
C67         C  0.00909587  0.32037262  0.12184583     0.76500
O68         O  0.03262834  0.34310587  0.26077663    -0.57300
C69         C  0.06016163  0.29522643  0.18918186     0.76500
C70         C  0.09024455  0.38701355  0.14715547     0.78900
Cd71       Cd  0.04632659  0.33778663  0.18607238     1.37500
O72         O  0.02060126  0.30704437  0.13256461    -0.56100
O73         O  0.06674890  0.37393216  0.13139663    -0.54900
C74         C  0.00714250  0.32717247  0.25513776     0.78800
O75         O  0.09304177  0.37961476  0.18378709    -0.57300
O76         O  0.01487910  0.34212304  0.14161040    -0.55800
O77         O  0.05895445  0.30698076  0.22240987    -0.55700
O78         O  0.00008626  0.31854311  0.21806245    -0.54900
O79         O  0.44139312  0.24507337  0.05743575    -0.56100
C80         C  0.48956149  0.31048141  0.08844348     0.76500
O81         O  0.46157685  0.29996109  0.28399571    -0.57300
C82         C  0.43659382  0.23219161  0.02320535     0.76500
C83         C  0.40598614  0.29256501  0.06948023     0.78900
Cd84       Cd  0.44970340  0.28834223  0.02759284     1.37500
O85         O  0.48270947  0.28770199  0.07153116    -0.56100
O86         O  0.41706400  0.28000626  0.08465439    -0.54900
C87         C  0.48680517  0.31690857  0.29007871     0.78800
O88         O  0.41390244  0.30262967  0.03282424    -0.57300
O89         O  0.47853561  0.32385562  0.07561142    -0.55800
O90         O  0.43465113  0.24383630  0.32386297    -0.55700
O91         O  0.49401933  0.32280744  0.32806570    -0.54900
O92         O  0.30151695  0.24636969  0.09919084    -0.56100
C93         C  0.31875558  0.31012422  0.06584848     0.76500
O94         O  0.34103994  0.30979337  0.20542059    -0.57300
C95         C  0.29248299  0.23387352  0.13358234     0.76500
C96         C  0.38440876  0.29423334  0.09317099     0.78900
Cd97       Cd  0.33554653  0.29020641  0.13092117     1.37500
O98         O  0.30516991  0.28537130  0.07734064    -0.56100
O99         O  0.37353529  0.30729500  0.07908316    -0.54900
C100        C  0.32449116  0.31854287  0.19995652     0.78800
O101        O  0.37515593  0.28201094  0.12808003    -0.57300
O102        O  0.34086901  0.32607753  0.08481243    -0.55800
O103        O  0.30530447  0.24618231  0.16666279    -0.55700
O104        O  0.31543102  0.31631958  0.16306638    -0.54900
O105        O  0.29899577  0.05570677  0.27972038    -0.56100
C106        C  0.31603415  0.00839593  0.31119988     0.76500
O107        O  0.33363126  0.03609367  0.17360984    -0.57300
C108        C  0.29200906  0.06208093  0.24585401     0.76500
C109        C  0.38267891  0.09229578  0.29144661     0.78900
Cd110      Cd  0.33446718  0.04828460  0.25021219     1.37500
O111        O  0.30030854  0.01521450  0.29367512    -0.56100
O112        O  0.35976710  0.07897907  0.30891839    -0.54900
C113        C  0.32590521  0.01099730  0.17965279     0.78800
O114        O  0.38397902  0.08608220  0.25328477    -0.57300
O115        O  0.34059520  0.01945481  0.29888245    -0.55800
O116        O  0.30645551  0.06495835  0.21361870    -0.55700
O117        O  0.32554288  0.00401094  0.21754381    -0.54900
O118        O  0.44011178  0.19734529  0.98709784    -0.56100
C119        C  0.48770503  0.18033217  0.28780648     0.76500
O120        O  0.46463218  0.15846881  0.09303708    -0.57300
C121        C  0.43680114  0.20643058  0.02148944     0.76500
C122        C  0.40600917  0.11443529  0.31435573     0.78900
Cd123      Cd  0.45066327  0.16386039  0.01866008     1.37500
O124        O  0.47695359  0.19422224  0.29930430    -0.56100
O125        O  0.42904800  0.12792966  0.29726894    -0.56100
C126        C  0.49006262  0.17468714  0.08746926     0.78800
O127        O  0.40388228  0.12198260  0.01783195    -0.57300
O128        O  0.48118300  0.15812807  0.30681420    -0.55800
O129        O  0.43689966  0.19397327  0.05460677    -0.55700
O130        O  0.49704460  0.18357721  0.05050384    -0.54900
O131        O  0.25311847  0.20088633  0.16938042    -0.56100
C132        C  0.18746171  0.18206591  0.20096203     0.76500
O133        O  0.19776042  0.16460674  0.06331569    -0.57300
C134        C  0.26639766  0.20817168  0.13542560     0.76500
C135        C  0.20689766  0.11746478  0.18078187     0.78900
Cd136      Cd  0.21020972  0.16520145  0.13988276     1.37500
O137        O  0.21010830  0.19839344  0.18403524    -0.56100
O138        O  0.21949010  0.14116919  0.19602610    -0.54900
C139        C  0.18113368  0.17317691  0.06956016     0.78800
O140        O  0.19618322  0.11517226  0.14465438    -0.57300
O141        O  0.17453442  0.15751041  0.18828374    -0.55800
O142        O  0.25470860  0.19392086  0.10298892    -0.55700
O143        O  0.17584658  0.17514799  0.10759180    -0.54900
O144        O  0.21461309  0.02422068  0.18519807    -0.56100
C145        C  0.26642865  0.06253995  0.24380147     0.76500
O146        O  0.21856327  0.09734074  0.23817158    -0.57300
C147        C  0.18976651  0.01304732  0.17452671     0.76500
C148        C  0.18101641  0.00994735  0.30859060     0.78900
Cd149      Cd  0.21028954  0.04946298  0.24028870     1.37500
O150        O  0.25443641  0.05991129  0.20916947    -0.56100
O151        O  0.18525538  0.00340296  0.27265162    -0.54900
C152        C  0.20586529  0.09428231  0.20374957     0.78800
O153        O  0.18863362  0.03513081  0.31353102    -0.57300
O154        O  0.25373355  0.06232236  0.27680293    -0.55800
O155        O  0.17415289  0.01904830  0.19461301    -0.55700
O156        O  0.19285863  0.07031410  0.18944845    -0.54900
O157        O  0.05306561  0.25531778  0.55707006    -0.56100
C158        C  0.00739308  0.19031204  0.58766389     0.76500
O159        O  0.03566990  0.20153278  0.44978712    -0.57300
C160        C  0.06016753  0.26933178  0.52378197     0.76500
C161        C  0.09048701  0.20915565  0.56980441     0.78900
Cd162      Cd  0.04718378  0.21321870  0.52688914     1.37500
O163        O  0.01393300  0.21297857  0.57062780    -0.56100
O164        O  0.08037231  0.22298785  0.58343060    -0.54900
C165        C  0.01036300  0.18483166  0.45574577     0.78800
O166        O  0.08202857  0.19798416  0.53393125    -0.57300
O167        O  0.01877132  0.17722567  0.57502288    -0.55800
O168        O  0.06412809  0.25850442  0.49150038    -0.55700
O169        O  0.00298392  0.17916567  0.49368822    -0.54900
O170        O  0.19078140  0.21623317  0.57917898    -0.56100
C171        C  0.20315398  0.26728291  0.63431958     0.76500
O172        O  0.12120794  0.22021837  0.62852498    -0.57300
C173        C  0.17720990  0.19152081  0.56748797     0.76500
C174        C  0.17062246  0.18287701  0.36813071     0.78900
Cd175      Cd  0.16002456  0.21110908  0.63239240     1.37500
O176        O  0.19376350  0.25471258  0.60008127    -0.56100
O177        O  0.17887102  0.18404790  0.33094803    -0.54900
C178        C  0.11161730  0.20726213  0.59425717     0.78800
O179        O  0.15489614  0.19258172  0.37386337    -0.57300
O180        O  0.19078981  0.25506214  0.33440153    -0.55800
O181        O  0.15504442  0.17551082  0.58626048    -0.55700
O182        O  0.12175005  0.19323480  0.58145029    -0.54900
O183        O  0.28572652  0.30330518  0.34953811    -0.56100
C184        C  0.22914149  0.29306480  0.63557454     0.76500
O185        O  0.29751245  0.38592814  0.64377286    -0.57300
C186        C  0.30847250  0.31962082  0.36621040     0.76500
C187        C  0.31417461  0.32839870  0.56811166     0.78900
Cd188      Cd  0.28520537  0.33634075  0.63896289     1.37500
O189        O  0.24264242  0.30066882  0.66929137    -0.56100
O190        O  0.31977918  0.32678553  0.60611534    -0.54900
C191        C  0.28831038  0.38375879  0.34796173     0.78800
O192        O  0.29732491  0.33671537  0.56201702    -0.57300
O193        O  0.24051686  0.30712489  0.60285472    -0.55800
O194        O  0.32134833  0.34418315  0.35350451    -0.55700
O195        O  0.27660495  0.36011115  0.36346016    -0.54900
O196        O  0.28156966  0.47813616  0.35630990    -0.56100
C197        C  0.22958252  0.43888471  0.41205590     0.76500
O198        O  0.27782091  0.40379681  0.40700766    -0.57300
C199        C  0.30621973  0.48873449  0.34480060     0.76500
C200        C  0.31524351  0.49060044  0.47841576     0.78900
Cd201      Cd  0.28562126  0.45161524  0.40961453     1.37500
O202        O  0.24137001  0.44011993  0.37776416    -0.56100
O203        O  0.31267872  0.49761149  0.44181300    -0.54900
C204        C  0.28952398  0.40683189  0.37159885     0.78800
O205        O  0.30602717  0.46511687  0.48377206    -0.57300
O206        O  0.24244918  0.44039177  0.44553991    -0.55800
O207        O  0.32165129  0.48206385  0.36392996    -0.55700
O208        O  0.30180882  0.43073054  0.35695159    -0.54900
O209        O  0.19713280  0.44684337  0.44578003    -0.56100
C210        C  0.17978481  0.49343964  0.47415735     0.76500
O211        O  0.16408031  0.46469772  0.33753829    -0.57300
C212        C  0.20400944  0.43938432  0.41288962     0.76500
C213        C  0.11330365  0.40903738  0.45680151     0.78900
Cd214      Cd  0.16123133  0.45277013  0.41453187     1.37500
O215        O  0.19543852  0.48635124  0.45714421    -0.56100
O216        O  0.13627039  0.42278429  0.47392805    -0.54900
C217        C  0.17002909  0.48937020  0.34297781     0.78800
O218        O  0.11174715  0.41465483  0.41838741    -0.57300
O219        O  0.15525704  0.48242369  0.46167348    -0.55800
O220        O  0.18940824  0.43536195  0.38038119    -0.55700
O221        O  0.16834074  0.49599837  0.38037679    -0.54900
O222        O  0.05822960  0.30514339  0.48784812    -0.56100
C223        C  0.00908508  0.32031628  0.45508942     0.76500
O224        O  0.03267085  0.34296379  0.59404169    -0.57300
C225        C  0.06022426  0.29522764  0.52232036     0.76500
C226        C  0.09025965  0.38706468  0.48044766     0.78900
Cd227      Cd  0.04635442  0.33777431  0.51926508     1.37500
O228        O  0.02060186  0.30700288  0.46582854    -0.56100
O229        O  0.06687003  0.37376449  0.46439816    -0.54900
C230        C  0.00717154  0.32714768  0.58835265     0.78800
O231        O  0.09294526  0.37982013  0.51725902    -0.57300
O232        O  0.01485520  0.34206986  0.47483710    -0.55800
O233        O  0.05895915  0.30694321  0.55555230    -0.55700
O234        O  0.00010218  0.31865596  0.55121998    -0.54900
O235        O  0.44141083  0.24493884  0.39078094    -0.56100
C236        C  0.48947728  0.31034793  0.42174512     0.76500
O237        O  0.46163520  0.30003182  0.61709451    -0.57300
C238        C  0.43655594  0.23200527  0.35659418     0.76500
C239        C  0.40598814  0.29241403  0.40267459     0.78900
Cd240      Cd  0.44968065  0.28816163  0.36082524     1.37500
O241        O  0.48268213  0.28758949  0.40480560    -0.56100
O242        O  0.41702787  0.27981518  0.41783405    -0.54900
C243        C  0.48689023  0.31687282  0.62318856     0.78800
O244        O  0.41391510  0.30248470  0.36602390    -0.57300
O245        O  0.47841544  0.32368918  0.40891457    -0.55800
O246        O  0.43470055  0.24383605  0.65688577    -0.55700
O247        O  0.49413231  0.32266098  0.66118685    -0.54900
O248        O  0.30158275  0.24633983  0.43255426    -0.56100
C249        C  0.31877997  0.31010524  0.39927050     0.76500
O250        O  0.34106967  0.30966545  0.53879327    -0.57300
C251        C  0.29252260  0.23387461  0.46696193     0.76500
C252        C  0.38444587  0.29412730  0.42638665     0.78900
Cd253      Cd  0.33564359  0.29017798  0.46422885     1.37500
O254        O  0.30522220  0.28533863  0.41071149    -0.56100
O255        O  0.37356126  0.30717172  0.41227449    -0.54900
C256        C  0.32464778  0.31856297  0.53324656     0.78800
O257        O  0.37523944  0.28196678  0.46135061    -0.57300
O258        O  0.34090745  0.32605460  0.41820421    -0.55800
O259        O  0.30533808  0.24619920  0.50003637    -0.55700
O260        O  0.31572871  0.31648894  0.49629237    -0.54900
O261        O  0.29896156  0.05545416  0.61276856    -0.56100
C262        C  0.31623526  0.00837001  0.64445581     0.76500
O263        O  0.33354863  0.03596540  0.50673179    -0.57300
C264        C  0.29201478  0.06189962  0.57892881     0.76500
C265        C  0.38269889  0.09226054  0.62450400     0.78900
Cd266      Cd  0.33452219  0.04818004  0.58332175     1.37500
O267        O  0.30045550  0.01509700  0.62688260    -0.56100
O268        O  0.35966285  0.07925455  0.64169569    -0.54900
C269        C  0.32586349  0.01087875  0.51278688     0.78800
O270        O  0.38413846  0.08575613  0.58656705    -0.57300
O271        O  0.34079574  0.01948127  0.63212377    -0.55800
O272        O  0.30650636  0.06485699  0.54671238    -0.55700
O273        O  0.32560507  0.00391799  0.55066662    -0.54900
O274        O  0.44001827  0.19710725  0.32057191    -0.56100
C275        C  0.48772030  0.18030256  0.62092285     0.76500
O276        O  0.46459948  0.15850318  0.42662939    -0.57300
C277        C  0.43675174  0.20623906  0.35494559     0.76500
C278        C  0.40601502  0.11437728  0.64747281     0.78900
Cd279      Cd  0.45062431  0.16367824  0.35216799     1.37500
O280        O  0.47681296  0.19408986  0.63219211    -0.56100
O281        O  0.42920870  0.12754527  0.63074828    -0.56100
C282        C  0.49005714  0.17449421  0.42091912     0.78800
O283        O  0.40395443  0.12161249  0.35153039    -0.57300
O284        O  0.48129903  0.15817175  0.64007762    -0.55800
O285        O  0.43689235  0.19382746  0.38809073    -0.55700
O286        O  0.49704635  0.18311580  0.38383512    -0.54900
O287        O  0.25316742  0.20087516  0.50278706    -0.56100
C288        C  0.18745247  0.18208566  0.53425997     0.76500
O289        O  0.19792247  0.16475477  0.39670098    -0.57300
C290        C  0.26642737  0.20818417  0.46881595     0.76500
C291        C  0.20692445  0.11744009  0.51409903     0.78900
Cd292      Cd  0.21023574  0.16519947  0.47327297     1.37500
O293        O  0.21016050  0.19839238  0.51747639    -0.56100
O294        O  0.21917551  0.14106207  0.52967740    -0.54900
C295        C  0.18115126  0.17314351  0.40294051     0.78800
O296        O  0.19652428  0.11524999  0.47773887    -0.57300
O297        O  0.17448424  0.15755833  0.52145814    -0.55800
O298        O  0.25471589  0.19395982  0.43637182    -0.55700
O299        O  0.17570857  0.17492002  0.44096374    -0.54900
O300        O  0.21444007  0.02400481  0.51853258    -0.56100
C301        C  0.26644266  0.06237877  0.57689821     0.76500
O302        O  0.21834021  0.09720525  0.57164839    -0.57300
C303        C  0.18957890  0.01285351  0.50794944     0.76500
C304        C  0.18108317  0.00997907  0.64192112     0.78900
Cd305      Cd  0.21031499  0.04939651  0.57351255     1.37500
O306        O  0.25443678  0.05976867  0.54228704    -0.56100
O307        O  0.18513932  0.00336256  0.60591865    -0.54900
C308        C  0.20591691  0.09424012  0.53697308     0.78800
O309        O  0.18883853  0.03519379  0.64686973    -0.57300
O310        O  0.25377189  0.06217796  0.60991557    -0.55800
O311        O  0.17401767  0.01890970  0.52807523    -0.55700
O312        O  0.19320487  0.07034840  0.52233127    -0.54900
O313        O  0.05303772  0.25532351  0.89044120    -0.56100
C314        C  0.00734645  0.19032722  0.92100140     0.76500
O315        O  0.03557442  0.20159940  0.78307682    -0.57300
C316        C  0.06000695  0.26930821  0.85712560     0.76500
C317        C  0.09044759  0.20913891  0.90294027     0.78900
Cd318      Cd  0.04709671  0.21320390  0.86016920     1.37500
O319        O  0.01389924  0.21299532  0.90395812    -0.56100
O320        O  0.08011817  0.22270528  0.91686517    -0.54900
C321        C  0.01028563  0.18482082  0.78901231     0.78800
O322        O  0.08215606  0.19821610  0.86687411    -0.57300
O323        O  0.01866008  0.17719284  0.90829067    -0.55800
O324        O  0.06389968  0.25847396  0.82479364    -0.55700
O325        O  0.00291540  0.17906316  0.82694589    -0.54900
O326        O  0.19083219  0.21625757  0.91235338    -0.56100
C327        C  0.20320405  0.26734682  0.96744433     0.76500
O328        O  0.12098348  0.21992294  0.96185895    -0.57300
C329        C  0.17731060  0.19150876  0.90082112     0.76500
C330        C  0.17060841  0.18281185  0.70156840     0.78900
Cd331      Cd  0.16005803  0.21117933  0.96548781     1.37500
O332        O  0.19373059  0.25484967  0.93317706    -0.56100
O333        O  0.17870581  0.18382272  0.66432831    -0.54900
C334        C  0.11162567  0.20727033  0.92729678     0.78800
O335        O  0.15500726  0.19265582  0.70735762    -0.57300
O336        O  0.19075258  0.25503591  0.66770009    -0.55800
O337        O  0.15517171  0.17549955  0.91966070    -0.55700
O338        O  0.12203730  0.19357963  0.91411360    -0.54900
O339        O  0.28568361  0.30326429  0.68271203    -0.56100
C340        C  0.22921772  0.29309880  0.96872697     0.76500
O341        O  0.29805012  0.38604343  0.97744366    -0.57300
C342        C  0.30847889  0.31955793  0.69927659     0.76500
C343        C  0.31416160  0.32829471  0.90130667     0.78900
Cd344      Cd  0.28527744  0.33633635  0.97219559     1.37500
O345        O  0.24278828  0.30054807  0.00239199    -0.56100
O346        O  0.31974358  0.32663445  0.93930760    -0.54900
C347        C  0.28826995  0.38372026  0.68103035     0.78800
O348        O  0.29736351  0.33668024  0.89523613    -0.57300
O349        O  0.24053709  0.30728438  0.93608112    -0.55800
O350        O  0.32139362  0.34410401  0.68648828    -0.55700
O351        O  0.27720986  0.36022915  0.69702402    -0.54900
O352        O  0.28135578  0.47818149  0.68961644    -0.56100
C353        C  0.22926546  0.43863236  0.74511038     0.76500
O354        O  0.27809314  0.40384066  0.74032090    -0.57300
C355        C  0.30599088  0.48871859  0.67805585     0.76500
C356        C  0.31503448  0.49046475  0.81143639     0.78900
Cd357      Cd  0.28533263  0.45146461  0.74265732     1.37500
O358        O  0.24103444  0.43984764  0.71081238    -0.56100
O359        O  0.31234863  0.49746182  0.77488954    -0.54900
C360        C  0.28937318  0.40677814  0.70455120     0.78800
O361        O  0.30588024  0.46498879  0.81675271    -0.57300
O362        O  0.24214554  0.44015023  0.77858337    -0.55800
O363        O  0.32137092  0.48191723  0.69703458    -0.55700
O364        O  0.30112357  0.43055421  0.68944421    -0.54900
O365        O  0.19698586  0.44683045  0.77881390    -0.56100
C366        C  0.17955484  0.49323279  0.80751505     0.76500
O367        O  0.16405559  0.46464967  0.67077183    -0.57300
C368        C  0.20371918  0.43918003  0.74597839     0.76500
C369        C  0.11312459  0.40885188  0.79007306     0.78900
Cd370      Cd  0.16099208  0.45261104  0.74774463     1.37500
O371        O  0.19520082  0.48619061  0.79035827    -0.56100
O372        O  0.13631079  0.42207502  0.80671148    -0.54900
C373        C  0.16992298  0.48929544  0.67626377     0.78800
O374        O  0.11132231  0.41492158  0.75200512    -0.57300
O375        O  0.15499649  0.48216193  0.79517141    -0.55800
O376        O  0.18901198  0.43502038  0.71354688    -0.55700
O377        O  0.16808644  0.49584516  0.71365090    -0.54900
O378        O  0.05792864  0.30506209  0.82124640    -0.56100
C379        C  0.00893007  0.32026322  0.78843844     0.76500
O380        O  0.03253202  0.34314817  0.92745983    -0.57300
C381        C  0.05999676  0.29517336  0.85570250     0.76500
C382        C  0.09009671  0.38696155  0.81386621     0.78900
Cd383      Cd  0.04614536  0.33773795  0.85272452     1.37500
O384        O  0.02042316  0.30694269  0.79926066    -0.56100
O385        O  0.06649444  0.37415666  0.79840396    -0.54900
C386        C  0.00704064  0.32721283  0.92188140     0.78800
O387        O  0.09299551  0.37931583  0.85024120    -0.57300
O388        O  0.01471163  0.34203638  0.80812562    -0.55800
O389        O  0.05876372  0.30689264  0.88895671    -0.55700
O390        O  0.99995320  0.31853245  0.88483677    -0.54900
O391        O  0.44154229  0.24495046  0.72378762    -0.56100
C392        C  0.48945005  0.31035360  0.75501120     0.76500
O393        O  0.46155298  0.30008135  0.95076494    -0.57300
C394        C  0.43663937  0.23200923  0.68960006     0.76500
C395        C  0.40596264  0.29231095  0.73569506     0.78900
Cd396      Cd  0.44973932  0.28814732  0.69391531     1.37500
O397        O  0.48272718  0.28762291  0.73804002    -0.56100
O398        O  0.41667955  0.27931141  0.75049911    -0.54900
C399        C  0.48677480  0.31707021  0.95680310     0.78800
O400        O  0.41420684  0.30279093  0.69934931    -0.57300
O401        O  0.47834926  0.32365149  0.74215474    -0.55800
O402        O  0.43472885  0.24406819  0.99050142    -0.55700
O403        O  0.49400141  0.32304738  0.99477225    -0.54900
O404        O  0.30151217  0.24631155  0.76566799    -0.56100
C405        C  0.31879658  0.31003668  0.73231600     0.76500
O406        O  0.34113093  0.30966555  0.87188245    -0.57300
C407        C  0.29255316  0.23380751  0.80007583     0.76500
C408        C  0.38443346  0.29402683  0.75945998     0.78900
Cd409      Cd  0.33564311  0.29011707  0.79732538     1.37500
O410        O  0.30522841  0.28527688  0.74378322    -0.56100
O411        O  0.37379835  0.30738982  0.74568957    -0.54900
C412        C  0.32460940  0.31844928  0.86641136     0.78800
O413        O  0.37500254  0.28156703  0.79414666    -0.57300
O414        O  0.34093921  0.32597704  0.75121705    -0.55800
O415        O  0.30544636  0.24610639  0.83311713    -0.55700
O416        O  0.31558272  0.31626484  0.82950820    -0.54900
O417        O  0.29893033  0.05540637  0.94625978    -0.56100
C418        C  0.31635373  0.00852561  0.97796296     0.76500
O419        O  0.33376785  0.03605212  0.84021305    -0.57300
C420        C  0.29200505  0.06192083  0.91246617     0.76500
C421        C  0.38274297  0.09243809  0.95794044     0.78900
Cd422      Cd  0.33458896  0.04828938  0.91678849     1.37500
O423        O  0.30056552  0.01521296  0.96031665    -0.56100
O424        O  0.35973164  0.07936291  0.97518978    -0.54900
C425        C  0.32602214  0.01095430  0.84630414     0.78800
O426        O  0.38416552  0.08596027  0.91998169    -0.57300
O427        O  0.34093122  0.01966659  0.96569688    -0.55800
O428        O  0.30653723  0.06497223  0.88026022    -0.55700
O429        O  0.32563108  0.00398530  0.88421279    -0.54900
O430        O  0.44003541  0.19706887  0.65356712    -0.56100
C431        C  0.48771875  0.18044553  0.95425434     0.76500
O432        O  0.46456784  0.15840575  0.75970529    -0.57300
C433        C  0.43680408  0.20622797  0.68794405     0.76500
C434        C  0.40605297  0.11459348  0.98086975     0.78900
Cd435      Cd  0.45061827  0.16363600  0.68524317     1.37500
O436        O  0.47687496  0.19428225  0.96557841    -0.56100
O437        O  0.42919622  0.12787587  0.96402365    -0.56100
C438        C  0.49001025  0.17452834  0.75406844     0.78800
O439        O  0.40379797  0.12185005  0.68434815    -0.57300
O440        O  0.48128419  0.15831825  0.97342928    -0.55800
O441        O  0.43694705  0.19382573  0.72110063    -0.55700
O442        O  0.49699916  0.18326275  0.71703579    -0.54900
O443        O  0.25327084  0.20079131  0.83601899    -0.56100
C444        C  0.18756336  0.18204258  0.86765997     0.76500
O445        O  0.19780558  0.16454456  0.73008221    -0.57300
C446        C  0.26647526  0.20810260  0.80199712     0.76500
C447        C  0.20695592  0.11741261  0.84755764     0.78900
Cd448      Cd  0.21029268  0.16514207  0.80662099     1.37500
O449        O  0.21024243  0.19835044  0.85080286    -0.56100
O450        O  0.21954285  0.14111538  0.86281076    -0.54900
C451        C  0.18116808  0.17309768  0.73636365     0.78800
O452        O  0.19626576  0.11512396  0.81141137    -0.57300
O453        O  0.17461550  0.15749513  0.85495192    -0.55800
O454        O  0.25471788  0.19387355  0.76957501    -0.55700
O455        O  0.17588876  0.17505432  0.77440454    -0.54900
O456        O  0.21461937  0.02414736  0.85197924    -0.56100
C457        C  0.26642195  0.06238433  0.91046541     0.76500
O458        O  0.21861095  0.09727807  0.90494386    -0.57300
C459        C  0.18978988  0.01301748  0.84123328     0.76500
C460        C  0.18097907  0.00990879  0.97531955     0.78900
Cd461      Cd  0.21029393  0.04938925  0.90702620     1.37500
O462        O  0.25445658  0.05987245  0.87584379    -0.56100
O463        O  0.18514857  0.00333200  0.93935982    -0.54900
C464        C  0.20590458  0.09422617  0.87053233     0.78800
O465        O  0.18866564  0.03510764  0.98026955    -0.57300
O466        O  0.25370707  0.06207848  0.94349559    -0.55800
O467        O  0.17417109  0.01902756  0.86128228    -0.55700
O468        O  0.19287177  0.07025781  0.85623650    -0.54900
O469        O  0.05278472  0.75532072  0.22348709    -0.56100
C470        C  0.00731243  0.69037654  0.25398838     0.76500
O471        O  0.03561381  0.70183226  0.11616975    -0.57300
C472        C  0.05994510  0.76938236  0.19024709     0.76500
C473        C  0.09047429  0.70935725  0.23623422     0.78900
Cd474      Cd  0.04712365  0.71332340  0.19327858     1.37500
O475        O  0.01375496  0.71298077  0.23681748    -0.56100
O476        O  0.08025264  0.72307823  0.24992607    -0.54900
C477        C  0.01034966  0.68494738  0.12210201     0.78800
O478        O  0.08210478  0.69826574  0.20028892    -0.57300
O479        O  0.01878921  0.67735407  0.24148913    -0.55800
O480        O  0.06404695  0.75863727  0.15799348    -0.55700
O481        O  0.00301228  0.67905912  0.16002184    -0.54900
O482        O  0.19080489  0.71636405  0.24588758    -0.56100
C483        C  0.20311418  0.76748531  0.30089416     0.76500
O484        O  0.12107707  0.72031250  0.29510812    -0.57300
C485        C  0.17721906  0.69164138  0.23424566     0.76500
C486        C  0.17050495  0.68293771  0.03511216     0.78900
Cd487      Cd  0.15998540  0.71132111  0.29898379     1.37500
O488        O  0.19370692  0.75492042  0.26665836    -0.56100
O489        O  0.17869396  0.68405315  0.99790573    -0.54900
C490        C  0.11161281  0.70748604  0.26070517     0.78800
O491        O  0.15486716  0.69274142  0.04089045    -0.57300
O492        O  0.19077693  0.75523047  0.00125800    -0.55800
O493        O  0.15503075  0.67567103  0.25299519    -0.55700
O494        O  0.12187230  0.69359842  0.24778368    -0.54900
O495        O  0.28555427  0.80331764  0.01625496    -0.56100
C496        C  0.22910767  0.79325403  0.30213779     0.76500
O497        O  0.29738119  0.88593844  0.31032116    -0.57300
C498        C  0.30841192  0.81956068  0.03269363     0.76500
C499        C  0.31420130  0.82841666  0.23479125     0.78900
Cd500      Cd  0.28521367  0.83640012  0.30559989     1.37500
O501        O  0.24253911  0.80092640  0.33590700    -0.56100
O502        O  0.31952797  0.82645412  0.27281050    -0.54900
C503        C  0.28851059  0.88388383  0.01444211     0.78800
O504        O  0.29761544  0.83706213  0.22869233    -0.57300
O505        O  0.24056514  0.80721955  0.26938140    -0.55800
O506        O  0.32144368  0.84406170  0.01971583    -0.55700
O507        O  0.27775914  0.86048698  0.03071185    -0.54900
O508        O  0.28164605  0.97834608  0.02296061    -0.56100
C509        C  0.22954862  0.93888021  0.07859616     0.76500
O510        O  0.27875445  0.90417032  0.07397327    -0.57300
C511        C  0.30630352  0.98894557  0.01147884     0.76500
C512        C  0.31525677  0.99059281  0.14488100     0.78900
Cd513      Cd  0.28561137  0.95166509  0.07602131     1.37500
O514        O  0.24125292  0.93999606  0.04427693    -0.56100
O515        O  0.31300713  0.99767850  0.10816546    -0.54900
C516        C  0.28964447  0.90697341  0.03790051     0.78800
O517        O  0.30576344  0.96506998  0.15029445    -0.57300
O518        O  0.24249463  0.94049677  0.11203166    -0.55800
O519        O  0.32172517  0.98225050  0.03059110    -0.55700
O520        O  0.30100757  0.93063709  0.02242043    -0.54900
O521        O  0.19728965  0.94707940  0.11236487    -0.56100
C522        C  0.17967305  0.99334825  0.14118072     0.76500
O523        O  0.16412324  0.96473996  0.00442180    -0.57300
C524        C  0.20399204  0.93940654  0.07951781     0.76500
C525        C  0.11329898  0.90892095  0.12357241     0.78900
Cd526      Cd  0.16120855  0.95273986  0.08139003     1.37500
O527        O  0.19535039  0.98633305  0.12407232    -0.56100
O528        O  0.13659250  0.92175127  0.13997785    -0.54900
C529        C  0.17012491  0.98942607  0.00994623     0.78800
O530        O  0.11142520  0.91536171  0.08576336    -0.57300
O531        O  0.15510899  0.98221102  0.12885092    -0.55800
O532        O  0.18923230  0.93518521  0.04712872    -0.55700
O533        O  0.16847224  0.99603373  0.04737324    -0.54900
O534        O  0.05786255  0.80512086  0.15432870    -0.56100
C535        C  0.00899060  0.82046084  0.12135926     0.76500
O536        O  0.03233665  0.84341918  0.26037212    -0.57300
C537        C  0.05993074  0.79524177  0.18879846     0.76500
C538        C  0.09021425  0.88705109  0.14730786     0.78900
Cd539      Cd  0.04610504  0.83780578  0.18582027     1.37500
O540        O  0.02060473  0.80722488  0.13198667    -0.56100
O541        O  0.06651139  0.87464771  0.13212598    -0.54900
C542        C  0.00689878  0.82714657  0.25486254     0.78800
O543        O  0.09315178  0.87903244  0.18334862    -0.57300
O544        O  0.01466966  0.84214708  0.14122279    -0.55800
O545        O  0.05869493  0.80696352  0.22205091    -0.55700
O546        O  0.99990667  0.81812723  0.21795353    -0.54900
O547        O  0.44147318  0.74508476  0.05704225    -0.56100
C548        C  0.48941080  0.81049499  0.08791493     0.76500
O549        O  0.46137890  0.79968620  0.28363492    -0.57300
C550        C  0.43647773  0.73208836  0.02289273     0.76500
C551        C  0.40579954  0.79235045  0.06898645     0.78900
Cd552      Cd  0.44953347  0.78822081  0.02708406     1.37500
O553        O  0.48276223  0.78782832  0.07077195    -0.56100
O554        O  0.41678971  0.77967073  0.08402365    -0.54900
C555        C  0.48653309  0.81693063  0.28965350     0.78800
O556        O  0.41376363  0.80252059  0.03239738    -0.57300
O557        O  0.47816017  0.82370973  0.07533540    -0.55800
O558        O  0.43456292  0.74391696  0.32348931    -0.55700
O559        O  0.49367923  0.82320592  0.32758951    -0.54900
O560        O  0.30136180  0.74636683  0.09916443    -0.56100
C561        C  0.31868115  0.81004434  0.06580202     0.76500
O562        O  0.34088586  0.80945804  0.20545954    -0.57300
C563        C  0.29242178  0.73384992  0.13356476     0.76500
C564        C  0.38428478  0.79406311  0.09277595     0.78900
Cd565      Cd  0.33554816  0.79015953  0.13079217     1.37500
O566        O  0.30501882  0.78532535  0.07745232    -0.56100
O567        O  0.37338933  0.80710865  0.07871866    -0.54900
C568        C  0.32466950  0.81859963  0.19988768     0.78800
O569        O  0.37512415  0.78191878  0.12776248    -0.57300
O570        O  0.34088560  0.82596042  0.08457715    -0.55800
O571        O  0.30533414  0.74613949  0.16659410    -0.55700
O572        O  0.31593792  0.81678074  0.16285981    -0.54900
O573        O  0.29897516  0.55540173  0.27956461    -0.56100
C574        C  0.31626814  0.50831592  0.31127814     0.76500
O575        O  0.33342074  0.53589904  0.17355744    -0.57300
C576        C  0.29204932  0.56185540  0.24570823     0.76500
C577        C  0.38274926  0.59232368  0.29123700     0.78900
Cd578      Cd  0.33457732  0.54815082  0.25014850     1.37500
O579        O  0.30050453  0.51505031  0.29367500    -0.56100
O580        O  0.35966149  0.57946935  0.30830856    -0.54900
C581        C  0.32590526  0.51085081  0.17959661     0.78800
O582        O  0.38424828  0.58563298  0.25343920    -0.57300
O583        O  0.34083986  0.51944222  0.29900266    -0.55800
O584        O  0.30655839  0.56481086  0.21351298    -0.55700
O585        O  0.32583216  0.50393764  0.21745503    -0.54900
O586        O  0.43984719  0.69713971  0.98683479    -0.56100
C587        C  0.48764274  0.68032929  0.28731393     0.76500
O588        O  0.46466059  0.65830195  0.09268895    -0.57300
C589        C  0.43667350  0.70632169  0.02123225     0.76500
C590        C  0.40605718  0.61447927  0.31417654     0.78900
Cd591      Cd  0.45058361  0.66379901  0.01844650     1.37500
O592        O  0.47660085  0.69403064  0.29835639    -0.56100
O593        O  0.42933712  0.62743627  0.29765905    -0.56100
C594        C  0.49005611  0.67471726  0.08714894     0.78800
O595        O  0.40376838  0.62202563  0.01759775    -0.57300
O596        O  0.48139733  0.65833612  0.30675131    -0.55800
O597        O  0.43690678  0.69396233  0.05438627    -0.55700
O598        O  0.49697296  0.68381101  0.05026718    -0.54900
O599        O  0.25320822  0.70072091  0.16954855    -0.56100
C600        C  0.18745536  0.68215179  0.20107772     0.76500
O601        O  0.19774473  0.66472431  0.06358328    -0.57300
C602        C  0.26635409  0.70813366  0.13548339     0.76500
C603        C  0.20679349  0.61732328  0.18075397     0.78900
Cd604      Cd  0.21015323  0.66516172  0.14009870     1.37500
O605        O  0.21022142  0.69839488  0.18439119    -0.56100
O606        O  0.21853476  0.64080799  0.19682879    -0.54900
C607        C  0.18101145  0.67315127  0.06988359     0.78800
O608        O  0.19685929  0.61530495  0.14406547    -0.57300
O609        O  0.17440542  0.65764054  0.18820584    -0.55800
O610        O  0.25454392  0.69398954  0.10302755    -0.55700
O611        O  0.17559798  0.67491783  0.10792551    -0.54900
O612        O  0.21453740  0.52387030  0.18509865    -0.56100
C613        C  0.26647707  0.56233933  0.24361769     0.76500
O614        O  0.21779736  0.59691164  0.23856135    -0.57300
C615        C  0.18972629  0.51283262  0.17427888     0.76500
C616        C  0.18088976  0.50981824  0.30829802     0.78900
Cd617      Cd  0.21031452  0.54928091  0.23998739     1.37500
O618        O  0.25452220  0.55976511  0.20897289    -0.56100
O619        O  0.18510547  0.50322056  0.27238297    -0.54900
C620        C  0.20584422  0.59409827  0.20346279     0.78800
O621        O  0.18855894  0.53501567  0.31317155    -0.57300
O622        O  0.25375199  0.56210312  0.27658858    -0.55800
O623        O  0.17414212  0.51890911  0.19429617    -0.55700
O624        O  0.19367372  0.57034821  0.18824722    -0.54900
O625        O  0.05269087  0.75531086  0.55699873    -0.56100
C626        C  0.00729917  0.69040190  0.58750841     0.76500
O627        O  0.03559075  0.70201240  0.44959486    -0.57300
C628        C  0.05985094  0.76938072  0.52376558     0.76500
C629        C  0.09046366  0.70938735  0.56961155     0.78900
Cd630      Cd  0.04707404  0.71333247  0.52673368     1.37500
O631        O  0.01372971  0.71299789  0.57031984    -0.56100
O632        O  0.08028210  0.72314971  0.58327915    -0.54900
C633        C  0.01034996  0.68501534  0.45546835     0.78800
O634        O  0.08204785  0.69825433  0.53370332    -0.57300
O635        O  0.01874726  0.67736185  0.57496563    -0.55800
O636        O  0.06397216  0.75865131  0.49151032    -0.55700
O637        O  0.00301517  0.67898521  0.49336591    -0.54900
O638        O  0.19065770  0.71631825  0.57910939    -0.56100
C639        C  0.20315114  0.76746500  0.63430961     0.76500
O640        O  0.12105448  0.72031212  0.62850020    -0.57300
C641        C  0.17709619  0.69156347  0.56761727     0.76500
C642        C  0.17043037  0.68295998  0.36824203     0.78900
Cd643      Cd  0.15996825  0.71132321  0.63236719     1.37500
O644        O  0.19371048  0.75492931  0.60006239    -0.56100
O645        O  0.17858261  0.68399629  0.33103160    -0.54900
C646        C  0.11160405  0.70751081  0.59407266     0.78800
O647        O  0.15485818  0.69284336  0.37398126    -0.57300
O648        O  0.19072887  0.75523791  0.33428278    -0.55800
O649        O  0.15498303  0.67558888  0.58654341    -0.55700
O650        O  0.12187534  0.69364009  0.58112388    -0.54900
O651        O  0.28547072  0.80327920  0.34948956    -0.56100
C652        C  0.22916404  0.79321390  0.63556294     0.76500
O653        O  0.29784449  0.88600473  0.64398176    -0.57300
C654        C  0.30832203  0.81950276  0.36596606     0.76500
C655        C  0.31410913  0.82827378  0.56810910     0.78900
Cd656      Cd  0.28526279  0.83635008  0.63901029     1.37500
O657        O  0.24263787  0.80081321  0.66930274    -0.56100
O658        O  0.31951697  0.82636720  0.60610874    -0.54900
C659        C  0.28842935  0.88381356  0.34776127     0.78800
O660        O  0.29750572  0.83690466  0.56206652    -0.57300
O661        O  0.24058606  0.80723793  0.60283413    -0.55800
O662        O  0.32138006  0.84400752  0.35300846    -0.55700
O663        O  0.27764638  0.86039592  0.36396229    -0.54900
O664        O  0.28132972  0.97820495  0.35623296    -0.56100
C665        C  0.22934777  0.93872960  0.41190550     0.76500
O666        O  0.27844863  0.90399927  0.40718004    -0.57300
C667        C  0.30596841  0.98878029  0.34466637     0.76500
C668        C  0.31514515  0.99045561  0.47805106     0.78900
Cd669      Cd  0.28540275  0.95152002  0.40927186     1.37500
O670        O  0.24092329  0.93954349  0.37758681    -0.56100
O671        O  0.31284677  0.99752951  0.44135220    -0.54900
C672        C  0.28952325  0.90687354  0.37124642     0.78800
O673        O  0.30563943  0.96493223  0.48348728    -0.57300
O674        O  0.24240509  0.94061002  0.44533255    -0.55800
O675        O  0.32138865  0.98204719  0.36367993    -0.55700
O676        O  0.30103325  0.93058268  0.35591618    -0.54900
O677        O  0.19735066  0.94737655  0.44546834    -0.56100
C678        C  0.17944325  0.99315374  0.47460566     0.76500
O679        O  0.16410477  0.96474675  0.33764148    -0.57300
C680        C  0.20382483  0.93932034  0.41280350     0.76500
C681        C  0.11320022  0.90883391  0.45688938     0.78900
Cd682      Cd  0.16106051  0.95266618  0.41461814     1.37500
O683        O  0.19513076  0.98619715  0.45738324    -0.56100
O684        O  0.13664405  0.92126415  0.47285837    -0.54900
C685        C  0.17013685  0.98944041  0.34319386     0.78800
O686        O  0.11114479  0.91561963  0.41938269    -0.57300
O687        O  0.15486307  0.98198846  0.46234388    -0.55800
O688        O  0.18886966  0.93476551  0.38054708    -0.55700
O689        O  0.16846778  0.99602802  0.38062804    -0.54900
O690        O  0.05764919  0.80504719  0.48783965    -0.56100
C691        C  0.00897559  0.82048280  0.45474819     0.76500
O692        O  0.03226820  0.84351595  0.59383721    -0.57300
C693        C  0.05981752  0.79523100  0.52231000     0.76500
C694        C  0.09014118  0.88702295  0.48075608     0.78900
Cd695      Cd  0.04602091  0.83781265  0.51932008     1.37500
O696        O  0.02058242  0.80724349  0.46539951    -0.56100
O697        O  0.06630283  0.87497157  0.46605392    -0.54900
C698        C  0.00684045  0.82716489  0.58838399     0.78800
O699        O  0.09323164  0.87871454  0.51644771    -0.57300
O700        O  0.01464373  0.84216208  0.47461476    -0.55800
O701        O  0.05867086  0.80700826  0.55556202    -0.55700
O702        O  0.99984691  0.81804713  0.55152292    -0.54900
O703        O  0.44141032  0.74505405  0.39038610    -0.56100
C704        C  0.48941401  0.81049011  0.42128970     0.76500
O705        O  0.46136840  0.79958722  0.61707029    -0.57300
C706        C  0.43653610  0.73211193  0.35620099     0.76500
C707        C  0.40571341  0.79229646  0.40233085     0.78900
Cd708      Cd  0.44951400  0.78822901  0.36047864     1.37500
O709        O  0.48267168  0.78776734  0.40426873    -0.56100
O710        O  0.41681057  0.77974854  0.41747537    -0.54900
C711        C  0.48649728  0.81693713  0.62304157     0.78800
O712        O  0.41362185  0.80238722  0.36568578    -0.57300
O713        O  0.47824553  0.82376078  0.40860243    -0.55800
O714        O  0.43445590  0.74391915  0.65712919    -0.55700
O715        O  0.49363177  0.82334502  0.66094925    -0.54900
O716        O  0.30120948  0.74617328  0.43239850    -0.56100
C717        C  0.31855507  0.80995302  0.39908261     0.76500
O718        O  0.34081970  0.80937777  0.53866218    -0.57300
C719        C  0.29223717  0.73367885  0.46680658     0.76500
C720        C  0.38414652  0.79395156  0.42606559     0.78900
Cd721      Cd  0.33536835  0.78998642  0.46404214     1.37500
O722        O  0.30487974  0.78522364  0.41067403    -0.56100
O723        O  0.37317204  0.80689974  0.41191642    -0.54900
C724        C  0.32451505  0.81842089  0.53317025     0.78800
O725        O  0.37501961  0.78185170  0.46109405    -0.57300
O726        O  0.34074421  0.82584652  0.41791339    -0.55800
O727        O  0.30513472  0.74597743  0.49984033    -0.55700
O728        O  0.31565239  0.81647985  0.49620424    -0.54900
O729        O  0.29899043  0.55567253  0.61318666    -0.56100
C730        C  0.31608735  0.50837445  0.64464319     0.76500
O731        O  0.33338262  0.53606737  0.50711010    -0.57300
C732        C  0.29202568  0.56206516  0.57931064     0.76500
C733        C  0.38274361  0.59242774  0.62481015     0.78900
Cd734      Cd  0.33453225  0.54831781  0.58370486     1.37500
O735        O  0.30038227  0.51523260  0.62715863    -0.56100
O736        O  0.35979675  0.57922492  0.64221728    -0.54900
C737        C  0.32593961  0.51103729  0.51314018     0.78800
O738        O  0.38408062  0.58606266  0.58675165    -0.57300
O739        O  0.34065113  0.51943964  0.63234519    -0.55800
O740        O  0.30649823  0.56496086  0.54709886    -0.55700
O741        O  0.32590966  0.50413940  0.55099223    -0.54900
O742        O  0.44001489  0.69721757  0.32015113    -0.56100
C743        C  0.48767994  0.68043745  0.62089796     0.76500
O744        O  0.46474135  0.65818939  0.42600144    -0.57300
C745        C  0.43676304  0.70635782  0.35453542     0.76500
C746        C  0.40606985  0.61460596  0.64767806     0.78900
Cd747      Cd  0.45065536  0.66381173  0.35180265     1.37500
O748        O  0.47678247  0.69424097  0.63212670    -0.56100
O749        O  0.42917709  0.62793580  0.63072968    -0.56100
C750        C  0.49010863  0.67478649  0.42056483     0.78800
O751        O  0.40374663  0.62219000  0.35082228    -0.57300
O752        O  0.48131664  0.65836507  0.64018745    -0.55800
O753        O  0.43692688  0.69395872  0.38768626    -0.55700
O754        O  0.49700697  0.68406294  0.38376833    -0.54900
O755        O  0.25292989  0.70070332  0.50274653    -0.56100
C756        C  0.18728125  0.68205387  0.53440774     0.76500
O757        O  0.19754137  0.66461467  0.39679759    -0.57300
C758        C  0.26614389  0.70799214  0.46873357     0.76500
C759        C  0.20663110  0.61731339  0.51413944     0.78900
Cd760      Cd  0.20993643  0.66508196  0.47333869     1.37500
O761        O  0.20997417  0.69831902  0.51754629    -0.56100
O762        O  0.21883556  0.64092707  0.52974803    -0.54900
C763        C  0.18089688  0.67315911  0.40305546     0.78800
O764        O  0.19623082  0.61512032  0.47777547    -0.57300
O765        O  0.17426557  0.65751216  0.52166837    -0.55800
O766        O  0.25438330  0.69376033  0.43631980    -0.55700
O767        O  0.17553025  0.67501814  0.44108888    -0.54900
O768        O  0.21465533  0.52415812  0.51842918    -0.56100
C769        C  0.26644201  0.56252664  0.57720456     0.76500
O770        O  0.21805813  0.59710809  0.57172222    -0.57300
C771        C  0.18984053  0.51306152  0.50761026     0.76500
C772        C  0.18084233  0.50980389  0.64166788     0.78900
Cd773      Cd  0.21026506  0.54938436  0.57349710     1.37500
O774        O  0.25448615  0.55991679  0.54254581    -0.56100
O775        O  0.18526652  0.50330432  0.60581814    -0.54900
C776        C  0.20569746  0.59413609  0.53697762     0.78800
O777        O  0.18834093  0.53496089  0.64656027    -0.57300
O778        O  0.25370714  0.56229473  0.61016520    -0.55800
O779        O  0.17420805  0.51905374  0.52766283    -0.55700
O780        O  0.19313586  0.57026878  0.52222460    -0.54900
O781        O  0.05286440  0.75537864  0.89036041    -0.56100
C782        C  0.00734835  0.69041374  0.92086311     0.76500
O783        O  0.03570648  0.70198792  0.78306618    -0.57300
C784        C  0.06007048  0.76943230  0.85711088     0.76500
C785        C  0.09052018  0.70938388  0.90321413     0.78900
Cd786      Cd  0.04719688  0.71336315  0.86020455     1.37500
O787        O  0.01384189  0.71305158  0.90376356    -0.56100
O788        O  0.08035385  0.72317222  0.91683095    -0.54900
C789        C  0.01045577  0.68503771  0.78896414     0.78800
O790        O  0.08211519  0.69823739  0.86731136    -0.57300
O791        O  0.01879725  0.67737392  0.90832676    -0.55800
O792        O  0.06417959  0.75866599  0.82489098    -0.55700
O793        O  0.00312276  0.67905738  0.82687047    -0.54900
O794        O  0.19075467  0.71634823  0.91273533    -0.56100
C795        C  0.20314759  0.76746949  0.96785415     0.76500
O796        O  0.12115099  0.72038029  0.96206097    -0.57300
C797        C  0.17714529  0.69163056  0.90107285     0.76500
C798        C  0.17044999  0.68298904  0.70162024     0.78900
Cd799      Cd  0.16000590  0.71130762  0.96594928     1.37500
O800        O  0.19372367  0.75489557  0.93363087    -0.56100
O801        O  0.17867189  0.68410676  0.66443274    -0.54900
C802        C  0.11164021  0.70749808  0.92771198     0.78800
O803        O  0.15479480  0.69277922  0.70733646    -0.57300
O804        O  0.19077379  0.75520553  0.66769507    -0.55800
O805        O  0.15498415  0.67565864  0.91988407    -0.55700
O806        O  0.12183818  0.69353971  0.91486124    -0.54900
O807        O  0.28557475  0.80326100  0.68292531    -0.56100
C808        C  0.22913745  0.79324544  0.96905143     0.76500
O809        O  0.29739847  0.88596072  0.97696881    -0.57300
C810        C  0.30839973  0.81951780  0.69943742     0.76500
C811        C  0.31417956  0.82840793  0.90154274     0.78900
Cd812      Cd  0.28523951  0.83641703  0.97237377     1.37500
O813        O  0.24258136  0.80096547  0.00280609    -0.56100
O814        O  0.31956543  0.82651029  0.93955541    -0.54900
C815        C  0.28852287  0.88378550  0.68118595     0.78800
O816        O  0.29755538  0.83700617  0.89545162    -0.57300
O817        O  0.24057812  0.80717396  0.93625845    -0.55800
O818        O  0.32142407  0.84402186  0.68647923    -0.55700
O819        O  0.27728427  0.86025761  0.69707154    -0.54900
O820        O  0.28157336  0.97816529  0.68953316    -0.56100
C821        C  0.22968211  0.93891891  0.74535675     0.76500
O822        O  0.27837962  0.90394717  0.74045824    -0.57300
C823        C  0.30622149  0.98879868  0.67799083     0.76500
C824        C  0.31538360  0.99053084  0.81155895     0.78900
Cd825      Cd  0.28571346  0.95161018  0.74272321     1.37500
O826        O  0.24126240  0.93973592  0.71103860    -0.56100
O827        O  0.31325534  0.99762090  0.77478568    -0.54900
C828        C  0.28971321  0.90687263  0.70474054     0.78800
O829        O  0.30577628  0.96499504  0.81704226    -0.57300
O830        O  0.24273370  0.94078848  0.77878541    -0.55800
O831        O  0.32168926  0.98216235  0.69708768    -0.55700
O832        O  0.30157643  0.93066374  0.68969201    -0.54900
O833        O  0.19757210  0.94740001  0.77896508    -0.56100
C834        C  0.17972762  0.99335788  0.80784167     0.76500
O835        O  0.16421392  0.96481301  0.67104714    -0.57300
C836        C  0.20414493  0.93948673  0.74624638     0.76500
C837        C  0.11344000  0.90901012  0.79027542     0.78900
Cd838      Cd  0.16134323  0.95280682  0.74801763     1.37500
O839        O  0.19542707  0.98636406  0.79075104    -0.56100
O840        O  0.13671197  0.92192337  0.80673061    -0.54900
C841        C  0.17026676  0.98951333  0.67657460     0.78800
O842        O  0.11158430  0.91537102  0.75240832    -0.57300
O843        O  0.15517457  0.98223584  0.79545387    -0.55800
O844        O  0.18926375  0.93504192  0.71393827    -0.55700
O845        O  0.16868732  0.99614249  0.71401662    -0.54900
O846        O  0.05794879  0.80511852  0.82110905    -0.56100
C847        C  0.00916540  0.82055805  0.78808652     0.76500
O848        O  0.03243402  0.84337680  0.92709343    -0.57300
C849        C  0.06009081  0.79530659  0.85559752     0.76500
C850        C  0.09035953  0.88713012  0.81400853     0.78900
Cd851      Cd  0.04626671  0.83786604  0.85254275     1.37500
O852        O  0.02074433  0.80728630  0.79871446    -0.56100
O853        O  0.06669035  0.87462153  0.79872490    -0.54900
C854        C  0.00699600  0.82713766  0.92152597     0.78800
O855        O  0.09327016  0.87919847  0.85014069    -0.57300
O856        O  0.01488666  0.84226118  0.80793532    -0.55800
O857        O  0.05894784  0.80710475  0.88882231    -0.55700
O858        O  0.00002409  0.81818883  0.88457951    -0.54900
O859        O  0.44146498  0.74515643  0.72399000    -0.56100
C860        C  0.48955313  0.81059526  0.75458005     0.76500
O861        O  0.46140881  0.79970553  0.95022760    -0.57300
C862        C  0.43649641  0.73215989  0.68984432     0.76500
C863        C  0.40584385  0.79244734  0.73592210     0.78900
Cd864      Cd  0.44954958  0.78829606  0.69395748     1.37500
O865        O  0.48281937  0.78788009  0.73753195    -0.56100
O866        O  0.41709196  0.78008469  0.75121259    -0.54900
C867        C  0.48657070  0.81691552  0.95626832     0.78800
O868        O  0.41358229  0.80233204  0.69912578    -0.57300
O869        O  0.47834471  0.82384396  0.74196975    -0.55800
O870        O  0.43442503  0.74385300  0.99019070    -0.55700
O871        O  0.49371672  0.82313825  0.99421417    -0.54900
O872        O  0.30136662  0.74628359  0.76592828    -0.56100
C873        C  0.31864160  0.81001044  0.73259758     0.76500
O874        O  0.34081662  0.80939689  0.87224069    -0.57300
C875        C  0.29232739  0.73381182  0.80033383     0.76500
C876        C  0.38428550  0.79411167  0.75965452     0.78900
Cd877      Cd  0.33549103  0.79011212  0.79759029     1.37500
O878        O  0.30499022  0.78528308  0.74421048    -0.56100
O879        O  0.37320606  0.80692386  0.74536737    -0.54900
C880        C  0.32463226  0.81857398  0.86664829     0.78800
O881        O  0.37525722  0.78214108  0.79479959    -0.57300
O882        O  0.34081296  0.82593766  0.75144410    -0.55800
O883        O  0.30517803  0.74612287  0.83339087    -0.55700
O884        O  0.31592089  0.81677853  0.82961081    -0.54900
O885        O  0.29898789  0.55554880  0.94624895    -0.56100
C886        C  0.31608278  0.50825950  0.97778318     0.76500
O887        O  0.33317344  0.53592285  0.84015910    -0.57300
C888        C  0.29203195  0.56194745  0.91236953     0.76500
C889        C  0.38269379  0.59231094  0.95787526     0.78900
Cd890      Cd  0.33450314  0.54817771  0.91677480     1.37500
O891        O  0.30035890  0.51509309  0.96029934    -0.56100
O892        O  0.35967942  0.57926701  0.97512307    -0.54900
C893        C  0.32580173  0.51090664  0.84615575     0.78800
O894        O  0.38411285  0.58579833  0.91993564    -0.57300
O895        O  0.34063629  0.51932397  0.96544012    -0.55800
O896        O  0.30649995  0.56483578  0.88015383    -0.55700
O897        O  0.32591332  0.50402774  0.88398029    -0.54900
O898        O  0.43993298  0.69725394  0.65379630    -0.56100
C899        C  0.48763614  0.68041643  0.95405663     0.76500
O900        O  0.46480074  0.65835669  0.75954190    -0.57300
C901        C  0.43671728  0.70640625  0.68818928     0.76500
C902        C  0.40600348  0.61447789  0.98078717     0.78900
Cd903      Cd  0.45067282  0.66391253  0.68535619     1.37500
O904        O  0.47666208  0.69416152  0.96521371    -0.56100
O905        O  0.42920652  0.62761301  0.96407513    -0.56100
C906        C  0.49018302  0.67483922  0.75401481     0.78800
O907        O  0.40394342  0.62197376  0.68468027    -0.57300
O908        O  0.48128434  0.65834145  0.97332506    -0.55800
O909        O  0.43693277  0.69403158  0.72133507    -0.55700
O910        O  0.49707514  0.68400223  0.71716010    -0.54900
O911        O  0.25299136  0.70081956  0.83621226    -0.56100
C912        C  0.18733313  0.68215193  0.86781508     0.76500
O913        O  0.19768274  0.66479388  0.73019233    -0.57300
C914        C  0.26622188  0.70813338  0.80221752     0.76500
C915        C  0.20672270  0.61737302  0.84740978     0.78900
Cd916      Cd  0.21000938  0.66518676  0.80674499     1.37500
O917        O  0.21005025  0.69841523  0.85101643    -0.56100
O918        O  0.21863010  0.64090441  0.86332047    -0.54900
C919        C  0.18093199  0.67320492  0.73643718     0.78800
O920        O  0.19659192  0.61528994  0.81085867    -0.57300
O921        O  0.17429839  0.65762905  0.85498867    -0.55800
O922        O  0.25447251  0.69392577  0.76978049    -0.55700
O923        O  0.17547245  0.67494882  0.77446562    -0.54900
O924        O  0.21451659  0.52399431  0.85161753    -0.56100
C925        C  0.26646080  0.56242607  0.91026793     0.76500
O926        O  0.21792427  0.59703499  0.90509047    -0.57300
C927        C  0.18967684  0.51288908  0.84092953     0.76500
C928        C  0.18093915  0.50984271  0.97493818     0.78900
Cd929      Cd  0.21030405  0.54935041  0.90664205     1.37500
O930        O  0.25447742  0.55977393  0.87562565    -0.56100
O931        O  0.18517894  0.50328283  0.93901149    -0.54900
C932        C  0.20580213  0.59416500  0.87014003     0.78800
O933        O  0.18857894  0.53503145  0.97985500    -0.57300
O934        O  0.25376261  0.56225435  0.94323373    -0.55800
O935        O  0.17409788  0.51892762  0.86104588    -0.55700
O936        O  0.19348083  0.57037061  0.85509612    -0.54900
O937        O  0.55292761  0.25531243  0.22389536    -0.56100
C938        C  0.50732388  0.19031178  0.25445693     0.76500
O939        O  0.53560923  0.20177608  0.11650685    -0.57300
C940        C  0.56005260  0.26934552  0.19062604     0.76500
C941        C  0.59045988  0.20921135  0.23645901     0.78900
Cd942      Cd  0.54709915  0.21323805  0.19364829     1.37500
O943        O  0.51385762  0.21298315  0.23744063    -0.56100
O944        O  0.58023987  0.22291360  0.25023313    -0.54900
C945        C  0.51033344  0.18492397  0.12240139     0.78800
O946        O  0.58207147  0.19815002  0.20050109    -0.57300
O947        O  0.51867147  0.17721246  0.24173844    -0.55800
O948        O  0.56403862  0.25853830  0.15834483    -0.55700
O949        O  0.50296676  0.17906157  0.16031748    -0.54900
O950        O  0.69075046  0.21624445  0.24586363    -0.56100
C951        C  0.70315845  0.26734047  0.30111159     0.76500
O952        O  0.62106345  0.22010023  0.29531269    -0.57300
C953        C  0.67718225  0.19151471  0.23425042     0.76500
C954        C  0.67052926  0.18292608  0.03477107     0.78900
Cd955      Cd  0.66001589  0.21117377  0.29907169     1.37500
O956        O  0.69376293  0.25481326  0.26684431    -0.56100
O957        O  0.67855531  0.18382238  0.99751481    -0.54900
C958        C  0.61161829  0.20733336  0.26085988     0.78800
O959        O  0.65503436  0.19289521  0.04054216    -0.57300
O960        O  0.69083020  0.25513853  0.00084997    -0.55800
O961        O  0.65504062  0.17551463  0.25309025    -0.55700
O962        O  0.62191634  0.19350469  0.24782975    -0.54900
O963        O  0.78575179  0.30332272  0.01604892    -0.56100
C964        C  0.72915607  0.29310828  0.30242272     0.76500
O965        O  0.79802313  0.38606151  0.31101991    -0.57300
C966        C  0.80849191  0.31963016  0.03274818     0.76500
C967        C  0.81403460  0.32831063  0.23492703     0.78900
Cd968      Cd  0.78521429  0.33634279  0.30588616     1.37500
O969        O  0.74266307  0.30064235  0.33614285    -0.56100
O970        O  0.81969814  0.32671680  0.27290948    -0.54900
C971        C  0.78836686  0.38374318  0.01446467     0.78800
O972        O  0.79718804  0.33663976  0.22890116    -0.57300
O973        O  0.74052958  0.30722254  0.26974249    -0.55800
O974        O  0.82140757  0.34418417  0.02000359    -0.55700
O975        O  0.77676913  0.36011326  0.03001856    -0.54900
O976        O  0.78137809  0.47807416  0.02280618    -0.56100
C977        C  0.72947533  0.43875483  0.07852109     0.76500
O978        O  0.77777863  0.40372961  0.07346728    -0.57300
C979        C  0.80601468  0.48866424  0.01123301     0.76500
C980        C  0.81519843  0.49047418  0.14484738     0.78900
Cd981      Cd  0.78552063  0.45152052  0.07604477     1.37500
O982        O  0.74114929  0.43972664  0.04422686    -0.56100
O983        O  0.81270152  0.49750941  0.10822602    -0.54900
C984        C  0.78953445  0.40679482  0.03809815     0.78800
O985        O  0.80588544  0.46497556  0.15022092    -0.57300
O986        O  0.74244784  0.44050902  0.11199588    -0.55800
O987        O  0.82144921  0.48196444  0.03027537    -0.55700
O988        O  0.80182157  0.43070049  0.02347874    -0.54900
O989        O  0.69726427  0.44710354  0.11208913    -0.56100
C990        C  0.67961071  0.49322828  0.14082387     0.76500
O991        O  0.66409313  0.46465717  0.00403200    -0.57300
C992        C  0.70392374  0.43929486  0.07934921     0.76500
C993        C  0.61330110  0.40893750  0.12345935     0.78900
Cd994      Cd  0.66114844  0.45266072  0.08102558     1.37500
O995        O  0.69528770  0.48622497  0.12367213    -0.56100
O996        O  0.63650760  0.42213514  0.14004091    -0.54900
C997        C  0.67007995  0.48933916  0.00952403     0.78800
O998        O  0.61147205  0.41500821  0.08540291    -0.57300
O999        O  0.65505905  0.48215226  0.12843878    -0.55800
O1000       O  0.68912571  0.43495062  0.04697131    -0.55700
O1001       O  0.66838877  0.49594454  0.04693694    -0.54900
O1002       O  0.55804367  0.30511409  0.15469353    -0.56100
C1003       C  0.50917578  0.32043785  0.12178540     0.76500
O1004       O  0.53261558  0.34315049  0.26083162    -0.57300
C1005       C  0.56011494  0.29524330  0.18916559     0.76500
C1006       C  0.59027837  0.38706600  0.14728853     0.78900
Cd1007     Cd  0.54632585  0.33783509  0.18612749     1.37500
O1008       O  0.52068368  0.30711701  0.13252821    -0.56100
O1009       O  0.56666634  0.37428169  0.13186032    -0.54900
C1010       C  0.50713567  0.32717905  0.25520042     0.78800
O1011       O  0.59318943  0.37940868  0.18364827    -0.57300
O1012       O  0.51493867  0.34218183  0.14154809    -0.55800
O1013       O  0.55894185  0.30701035  0.22240445    -0.55700
O1014       O  0.50008796  0.31852833  0.21813323    -0.54900
O1015       O  0.94129830  0.24502084  0.05744087    -0.56100
C1016       C  0.98947782  0.31042441  0.08850629     0.76500
O1017       O  0.96157823  0.29999374  0.28393859    -0.57300
C1018       C  0.93652811  0.23215174  0.02320371     0.76500
C1019       C  0.90591031  0.29248037  0.06944101     0.78900
Cd1020     Cd  0.94965353  0.28829965  0.02758836     1.37500
O1021       O  0.98266434  0.28767333  0.07152732    -0.56100
O1022       O  0.91686776  0.27977045  0.08447996    -0.54900
C1023       C  0.98681375  0.31691617  0.29001905     0.78800
O1024       O  0.91394417  0.30270498  0.03290006    -0.57300
O1025       O  0.97842325  0.32378164  0.07572303    -0.55800
O1026       O  0.93466570  0.24386700  0.32376175    -0.55700
O1027       O  0.99403628  0.32279867  0.32800652    -0.54900
O1028       O  0.80140494  0.24634718  0.09918133    -0.56100
C1029       C  0.81874305  0.31010939  0.06588258     0.76500
O1030       O  0.84101011  0.30971181  0.20545557    -0.57300
C1031       C  0.79240016  0.23382395  0.13356068     0.76500
C1032       C  0.88433990  0.29414456  0.09315757     0.78900
Cd1033     Cd  0.83549633  0.29013963  0.13093564     1.37500
O1034       O  0.80516022  0.28534270  0.07730974    -0.56100
O1035       O  0.87355216  0.30731778  0.07919626    -0.54900
C1036       C  0.82445471  0.31845558  0.20001432     0.78800
O1037       O  0.87501399  0.28181578  0.12797007    -0.57300
O1038       O  0.84084086  0.32604925  0.08489246    -0.55800
O1039       O  0.80526046  0.24609787  0.16663663    -0.55700
O1040       O  0.81537552  0.31622389  0.16313585    -0.54900
O1041       O  0.79894114  0.05562229  0.27971132    -0.56100
C1042       C  0.81604665  0.00840407  0.31109740     0.76500
O1043       O  0.83343044  0.03617691  0.17353430    -0.57300
C1044       C  0.79200471  0.06209764  0.24588929     0.76500
C1045       C  0.88268832  0.09236377  0.29138412     0.78900
Cd1046     Cd  0.83448739  0.04834154  0.25016710     1.37500
O1047       O  0.80031552  0.01521737  0.29357992    -0.56100
O1048       O  0.85974626  0.07912844  0.30879330    -0.54900
C1049       C  0.82593273  0.01113009  0.17952243     0.78800
O1050       O  0.88401878  0.08608021  0.25327564    -0.57300
O1051       O  0.84061170  0.01948780  0.29879703    -0.55800
O1052       O  0.80650404  0.06508193  0.21367388    -0.55700
O1053       O  0.82581701  0.00418402  0.21737051    -0.54900
O1054       O  0.94013046  0.19735628  0.98712005    -0.56100
C1055       C  0.98769945  0.18033924  0.28770737     0.76500
O1056       O  0.96465141  0.15843571  0.09302867    -0.57300
C1057       C  0.93673497  0.20639246  0.02149301     0.76500
C1058       C  0.90602049  0.11448914  0.31430393     0.78900
Cd1059     Cd  0.95064884  0.16386264  0.01868846     1.37500
O1060       O  0.97695564  0.19423903  0.29919192    -0.56100
O1061       O  0.92910051  0.12788551  0.29730460    -0.56100
C1062       C  0.99007381  0.17469279  0.08745983     0.78800
O1063       O  0.90401490  0.12175642  0.01799834    -0.57300
O1064       O  0.98117094  0.15813737  0.30672534    -0.55800
O1065       O  0.93675887  0.19389369  0.05460690    -0.55700
O1066       O  0.99703719  0.18363023  0.05051174    -0.54900
O1067       O  0.75305651  0.20082261  0.16938684    -0.56100
C1068       C  0.68739230  0.18205793  0.20100641     0.76500
O1069       O  0.69765722  0.16459575  0.06334618    -0.57300
C1070       C  0.76630817  0.20813074  0.13540923     0.76500
C1071       C  0.70681451  0.11744087  0.18079595     0.78900
Cd1072     Cd  0.71011477  0.16517994  0.13990586     1.37500
O1073       O  0.71005942  0.19836970  0.18412062    -0.56100
O1074       O  0.71933470  0.14113245  0.19609630    -0.54900
C1075       C  0.68105205  0.17319247  0.06959622     0.78800
O1076       O  0.69615074  0.11515814  0.14462764    -0.57300
O1077       O  0.67443021  0.15751644  0.18826758    -0.55800
O1078       O  0.75458759  0.19391067  0.10296283    -0.55700
O1079       O  0.67577227  0.17516857  0.10762971    -0.54900
O1080       O  0.71460364  0.02421172  0.18528262    -0.56100
C1081       C  0.76642484  0.06255711  0.24384473     0.76500
O1082       O  0.71845534  0.09732389  0.23823165    -0.57300
C1083       C  0.68974874  0.01301122  0.17464477     0.76500
C1084       C  0.68103478  0.00998088  0.30867323     0.78900
Cd1085     Cd  0.71028275  0.04947733  0.24033764     1.37500
O1086       O  0.75444319  0.05995905  0.20921243    -0.56100
O1087       O  0.68519429  0.00342011  0.27269551    -0.54900
C1088       C  0.70581054  0.09426731  0.20375508     0.78800
O1089       O  0.68870901  0.03517646  0.31364072    -0.57300
O1090       O  0.75371958  0.06231007  0.27685023    -0.55800
O1091       O  0.67413083  0.01900137  0.19474235    -0.55700
O1092       O  0.69288452  0.07031056  0.18939330    -0.54900
O1093       O  0.55310411  0.25535060  0.55704410    -0.56100
C1094       C  0.50740279  0.19031636  0.58767066     0.76500
O1095       O  0.53566882  0.20146972  0.44982386    -0.57300
C1096       C  0.56019921  0.26934931  0.52374208     0.76500
C1097       C  0.59051347  0.20920146  0.56984460     0.78900
Cd1098     Cd  0.54720128  0.21323507  0.52690982     1.37500
O1099       O  0.51392600  0.21297640  0.57062194    -0.56100
O1100       O  0.58035325  0.22298435  0.58350775    -0.54900
C1101       C  0.51035786  0.18479489  0.45580670     0.78800
O1102       O  0.58208920  0.19806334  0.53394246    -0.57300
O1103       O  0.51881090  0.17725211  0.57506143    -0.55800
O1104       O  0.56414187  0.25850345  0.49146769    -0.55700
O1105       O  0.50298452  0.17917998  0.49375813    -0.54900
O1106       O  0.69083143  0.21625877  0.57926772    -0.56100
C1107       C  0.70318689  0.26734192  0.63438621     0.76500
O1108       O  0.62120308  0.22023118  0.62860505    -0.57300
C1109       C  0.67724164  0.19154635  0.56757762     0.76500
C1110       C  0.67055559  0.18284169  0.36824615     0.78900
Cd1111     Cd  0.66005636  0.21116971  0.63244010     1.37500
O1112       O  0.69379011  0.25477957  0.60014336    -0.56100
O1113       O  0.67870526  0.18390391  0.33102620    -0.54900
C1114       C  0.61165310  0.20732183  0.59429035     0.78800
O1115       O  0.65492293  0.19265176  0.37401252    -0.57300
O1116       O  0.69075180  0.25505922  0.33446694    -0.55800
O1117       O  0.65506478  0.17555538  0.58633706    -0.55700
O1118       O  0.62183374  0.19335034  0.58142728    -0.54900
O1119       O  0.78568835  0.30326194  0.34965668    -0.56100
C1120       C  0.72917410  0.29312320  0.63564142     0.76500
O1121       O  0.79759191  0.38597366  0.64380061    -0.57300
C1122       C  0.80847031  0.31955981  0.36624848     0.76500
C1123       C  0.81418967  0.32838500  0.56815274     0.78900
Cd1124     Cd  0.78524656  0.33637416  0.63900257     1.37500
O1125       O  0.74268369  0.30071659  0.66935168    -0.56100
O1126       O  0.81980263  0.32678893  0.60615863    -0.54900
C1127       C  0.78835104  0.38374712  0.34799040     0.78800
O1128       O  0.79734392  0.33670555  0.56205138    -0.57300
O1129       O  0.74054237  0.30719016  0.60292481    -0.55800
O1130       O  0.82137743  0.34410551  0.35347183    -0.55700
O1131       O  0.77676129  0.36013333  0.36360362    -0.54900
O1132       O  0.78158979  0.47814311  0.35627592    -0.56100
C1133       C  0.72960436  0.43888099  0.41200283     0.76500
O1134       O  0.77795867  0.40383816  0.40707607    -0.57300
C1135       C  0.80624317  0.48875414  0.34477794     0.76500
C1136       C  0.81525719  0.49061126  0.47839230     0.78900
Cd1137     Cd  0.78564719  0.45162266  0.40957644     1.37500
O1138       O  0.74139760  0.44011975  0.37771688    -0.56100
O1139       O  0.81277733  0.49763257  0.44175228    -0.54900
C1140       C  0.78956358  0.40683422  0.37158639     0.78800
O1141       O  0.80597292  0.46511854  0.48377673    -0.57300
O1142       O  0.74246803  0.44039172  0.44549091    -0.55800
O1143       O  0.82168066  0.48209420  0.36391703    -0.55700
O1144       O  0.80174171  0.43070245  0.35682199    -0.54900
O1145       O  0.69711943  0.44678590  0.44572918    -0.56100
C1146       C  0.67980407  0.49342250  0.47407104     0.76500
O1147       O  0.66413060  0.46469306  0.33746878    -0.57300
C1148       C  0.70402746  0.43937141  0.41282376     0.76500
C1149       C  0.61332664  0.40901976  0.45669646     0.78900
Cd1150     Cd  0.66125248  0.45275414  0.41444892     1.37500
O1151       O  0.69546873  0.48635571  0.45703665    -0.56100
O1152       O  0.63629746  0.42275335  0.47381797    -0.54900
C1153       C  0.67005116  0.48935645  0.34291702     0.78800
O1154       O  0.61176613  0.41464913  0.41829076    -0.57300
O1155       O  0.65527299  0.48239121  0.46160094    -0.55800
O1156       O  0.68945526  0.43538751  0.38029225    -0.55700
O1157       O  0.66832791  0.49596908  0.38031126    -0.54900
O1158       O  0.55824970  0.30514510  0.48778162    -0.56100
C1159       C  0.50909793  0.32032558  0.45507555     0.76500
O1160       O  0.53270894  0.34301523  0.59395762    -0.57300
C1161       C  0.56026604  0.29524838  0.52225865     0.76500
C1162       C  0.59028459  0.38705087  0.48034734     0.78900
Cd1163     Cd  0.54638650  0.33778044  0.51920362     1.37500
O1164       O  0.52057721  0.30698350  0.46585395    -0.56100
O1165       O  0.56689548  0.37374288  0.46429512    -0.54900
C1166       C  0.50721474  0.32714793  0.58830122     0.78800
O1167       O  0.59297090  0.37981964  0.51716744    -0.57300
O1168       O  0.51491970  0.34211449  0.47475916    -0.55800
O1169       O  0.55902726  0.30698378  0.55548562    -0.55700
O1170       O  0.50014229  0.31860527  0.55119168    -0.54900
O1171       O  0.94140974  0.24494569  0.39068470    -0.56100
C1172       C  0.98948000  0.31034803  0.42173133     0.76500
O1173       O  0.96157512  0.30005527  0.61710692    -0.57300
C1174       C  0.93656066  0.23202475  0.35648702     0.76500
C1175       C  0.90598636  0.29238250  0.40265347     0.78900
Cd1176     Cd  0.94969611  0.28817453  0.36077122     1.37500
O1177       O  0.98275043  0.28763310  0.40469134    -0.56100
O1178       O  0.91694889  0.27967848  0.41769643    -0.54900
C1179       C  0.98683414  0.31686969  0.62322473     0.78800
O1180       O  0.91398744  0.30257098  0.36608329    -0.57300
O1181       O  0.97836386  0.32365428  0.40897913    -0.55800
O1182       O  0.93461898  0.24381682  0.65686437    -0.55700
O1183       O  0.99406719  0.32262669  0.66123214    -0.54900
O1184       O  0.80155425  0.24632058  0.43259943    -0.56100
C1185       C  0.81878251  0.31004454  0.39930190     0.76500
O1186       O  0.84107852  0.30963828  0.53884555    -0.57300
C1187       C  0.79251756  0.23383428  0.46699825     0.76500
C1188       C  0.88444867  0.29408540  0.42640296     0.78900
Cd1189     Cd  0.83564902  0.29013508  0.46428089     1.37500
O1190       O  0.80521489  0.28528584  0.41077567    -0.56100
O1191       O  0.87361861  0.30720674  0.41239520    -0.54900
C1192       C  0.82465333  0.31853133  0.53329576     0.78800
O1193       O  0.87519465  0.28184424  0.46129762    -0.57300
O1194       O  0.84092470  0.32599111  0.41820312    -0.55800
O1195       O  0.80536096  0.24613613  0.50006845    -0.55700
O1196       O  0.81572580  0.31644176  0.49634411    -0.54900
O1197       O  0.79905801  0.05548585  0.61274589    -0.56100
C1198       C  0.81626439  0.00838797  0.64434555     0.76500
O1199       O  0.83353275  0.03601229  0.50665344    -0.57300
C1200       C  0.79210447  0.06194085  0.57892160     0.76500
C1201       C  0.88277154  0.09229203  0.62447358     0.78900
Cd1202     Cd  0.83461369  0.04822473  0.58325350     1.37500
O1203       O  0.80050270  0.01513269  0.62675642    -0.56100
O1204       O  0.85975550  0.07921051  0.64170255    -0.54900
C1205       C  0.82597020  0.01095330  0.51268680     0.78800
O1206       O  0.88420332  0.08585900  0.58649009    -0.57300
O1207       O  0.84082699  0.01948054  0.63202859    -0.55800
O1208       O  0.80659399  0.06491548  0.54669541    -0.55700
O1209       O  0.82584941  0.00402106  0.55054615    -0.54900
O1210       O  0.94008006  0.19716501  0.32045631    -0.56100
C1211       C  0.98772654  0.18031683  0.62093825     0.76500
O1212       O  0.96462262  0.15849171  0.42651762    -0.57300
C1213       C  0.93675773  0.20626194  0.35482457     0.76500
C1214       C  0.90607058  0.11441450  0.64745524     0.78900
Cd1215     Cd  0.95064297  0.16371965  0.35208743     1.37500
O1216       O  0.97685236  0.19413014  0.63223524    -0.56100
O1217       O  0.92925261  0.12763247  0.63071030    -0.56100
C1218       C  0.99007139  0.17455127  0.42084710     0.78800
O1219       O  0.90392940  0.12174774  0.35140108    -0.57300
O1220       O  0.98128479  0.15817801  0.64008200    -0.55800
O1221       O  0.93685058  0.19382342  0.38796771    -0.55700
O1222       O  0.99705765  0.18325329  0.38379771    -0.54900
O1223       O  0.75319121  0.20080016  0.50284919    -0.56100
C1224       C  0.68747134  0.18209093  0.53435675     0.76500
O1225       O  0.69781726  0.16466208  0.39678826    -0.57300
C1226       C  0.76641909  0.20814553  0.46885173     0.76500
C1227       C  0.70692334  0.11740824  0.51415439     0.78900
Cd1228     Cd  0.71021858  0.16517318  0.47334779     1.37500
O1229       O  0.71017498  0.19838505  0.51755065    -0.56100
O1230       O  0.71912446  0.14101988  0.52977317    -0.54900
C1231       C  0.68109660  0.17311183  0.40304845     0.78800
O1232       O  0.69655095  0.11522686  0.47777328    -0.57300
O1233       O  0.67449145  0.15755846  0.52157575    -0.55800
O1234       O  0.75467222  0.19396064  0.43639271    -0.55700
O1235       O  0.67571939  0.17495443  0.44108169    -0.54900
O1236       O  0.71452374  0.02395685  0.51865022    -0.56100
C1237       C  0.76652483  0.06240555  0.57691628     0.76500
O1238       O  0.71831993  0.09717206  0.57173054    -0.57300
C1239       C  0.68967148  0.01282872  0.50802204     0.76500
C1240       C  0.68113819  0.00998404  0.64200518     0.78900
Cd1241     Cd  0.71038356  0.04938930  0.57356676     1.37500
O1242       O  0.75450895  0.05979195  0.54231459    -0.56100
O1243       O  0.68512168  0.00334520  0.60597191    -0.54900
C1244       C  0.70594262  0.09421348  0.53701083     0.78800
O1245       O  0.68896986  0.03521430  0.64697142    -0.57300
O1246       O  0.75385619  0.06219032  0.60994400    -0.55800
O1247       O  0.67411161  0.01890468  0.52810795    -0.55700
O1248       O  0.69330276  0.07033469  0.52231051    -0.54900
O1249       O  0.55305074  0.25540139  0.89038773    -0.56100
C1250       C  0.50734343  0.19040408  0.92091337     0.76500
O1251       O  0.53558925  0.20158574  0.78301744    -0.57300
C1252       C  0.56003696  0.26939988  0.85708701     0.76500
C1253       C  0.59047150  0.20925595  0.90290058     0.78900
Cd1254     Cd  0.54711357  0.21329467  0.86010162     1.37500
O1255       O  0.51383591  0.21303657  0.90379599    -0.56100
O1256       O  0.58017344  0.22286478  0.91676808    -0.54900
C1257       C  0.51029340  0.18484093  0.78897801     0.78800
O1258       O  0.58214947  0.19828172  0.86687294    -0.57300
O1259       O  0.51873647  0.17732453  0.90830135    -0.55800
O1260       O  0.56393181  0.25857442  0.82474428    -0.55700
O1261       O  0.50292205  0.17916196  0.82692141    -0.54900
O1262       O  0.69084448  0.21630601  0.91243236    -0.56100
C1263       C  0.70321742  0.26741765  0.96748352     0.76500
O1264       O  0.62102756  0.22008277  0.96180347    -0.57300
C1265       C  0.67727846  0.19157225  0.90083713     0.76500
C1266       C  0.67059743  0.18284992  0.70161704     0.78900
Cd1267     Cd  0.66004861  0.21125746  0.96551712     1.37500
O1268       O  0.69378862  0.25489637  0.93322077    -0.56100
O1269       O  0.67866837  0.18382244  0.66437033    -0.54900
C1270       C  0.61164262  0.20738837  0.92728000     0.78800
O1271       O  0.65503938  0.19274333  0.70741189    -0.57300
O1272       O  0.69079382  0.25508635  0.66776560    -0.55800
O1273       O  0.65510757  0.17558740  0.91961913    -0.55700
O1274       O  0.62201522  0.19364797  0.91416091    -0.54900
O1275       O  0.78570121  0.30328468  0.68274444    -0.56100
C1276       C  0.72923016  0.29317067  0.96878537     0.76500
O1277       O  0.79808215  0.38610364  0.97751501    -0.57300
C1278       C  0.80848824  0.31957436  0.69933577     0.76500
C1279       C  0.81416361  0.32834907  0.90138457     0.78900
Cd1280     Cd  0.78529593  0.33639517  0.97228007     1.37500
O1281       O  0.74277176  0.30064488  0.00247603    -0.56100
O1282       O  0.81979137  0.32674200  0.93938091    -0.54900
C1283       C  0.78836550  0.38377914  0.68106700     0.78800
O1284       O  0.79734007  0.33670330  0.89531886    -0.57300
O1285       O  0.74057869  0.30733126  0.93613144    -0.55800
O1286       O  0.82141401  0.34412175  0.68655418    -0.55700
O1287       O  0.77729507  0.36029014  0.69706907    -0.54900
O1288       O  0.78146530  0.47826067  0.68967620    -0.56100
C1289       C  0.72937701  0.43868221  0.74511998     0.76500
O1290       O  0.77824063  0.40392543  0.74037616    -0.57300
C1291       C  0.80609738  0.48880521  0.67809571     0.76500
C1292       C  0.81515271  0.49052019  0.81146754     0.78900
Cd1293     Cd  0.78545716  0.45153772  0.74268084     1.37500
O1294       O  0.74114907  0.43988874  0.71082942    -0.56100
O1295       O  0.81254356  0.49753490  0.77489230    -0.54900
C1296       C  0.78949248  0.40684862  0.70458550     0.78800
O1297       O  0.80593594  0.46503541  0.81680333    -0.57300
O1298       O  0.74226599  0.44023299  0.77859835    -0.55800
O1299       O  0.82148926  0.48201058  0.69705429    -0.55700
O1300       O  0.80122870  0.43061783  0.68945418    -0.54900
O1301       O  0.69702520  0.44677272  0.77883064    -0.56100
C1302       C  0.67959599  0.49320656  0.80751969     0.76500
O1303       O  0.66399117  0.46459521  0.67075322    -0.57300
C1304       C  0.70381207  0.43919701  0.74597133     0.76500
C1305       C  0.61319412  0.40888509  0.79010360     0.78900
Cd1306     Cd  0.66106080  0.45259926  0.74773825     1.37500
O1307       O  0.69525034  0.48617382  0.79036824    -0.56100
O1308       O  0.63640600  0.42203841  0.80667879    -0.54900
C1309       C  0.66994782  0.48926803  0.67625929     0.78800
O1310       O  0.61136935  0.41498629  0.75206388    -0.57300
O1311       O  0.65504148  0.48213651  0.79515882    -0.55800
O1312       O  0.68913937  0.43508344  0.71351095    -0.55700
O1313       O  0.66823957  0.49585972  0.71367407    -0.54900
O1314       O  0.55798993  0.30518023  0.82124591    -0.56100
C1315       C  0.50902678  0.32034755  0.78841173     0.76500
O1316       O  0.53256701  0.34326682  0.92746780    -0.57300
C1317       C  0.56004128  0.29527152  0.85569261     0.76500
C1318       C  0.59016058  0.38703240  0.81393054     0.78900
Cd1319     Cd  0.54619693  0.33783292  0.85275789     1.37500
O1320       O  0.52052161  0.30703619  0.79927157    -0.56100
O1321       O  0.56652136  0.37433696  0.79857724    -0.54900
C1322       C  0.50708261  0.32728819  0.92189604     0.78800
O1323       O  0.59308983  0.37931121  0.85022612    -0.57300
O1324       O  0.51479319  0.34212346  0.80807835    -0.55800
O1325       O  0.55880009  0.30697451  0.88896214    -0.55700
O1326       O  0.50000531  0.31857232  0.88486469    -0.54900
O1327       O  0.94143552  0.24492142  0.72377250    -0.56100
C1328       C  0.98934766  0.31028817  0.75504472     0.76500
O1329       O  0.96150437  0.30004170  0.95075533    -0.57300
C1330       C  0.93655136  0.23198755  0.68958189     0.76500
C1331       C  0.90588529  0.29229151  0.73572101     0.78900
Cd1332     Cd  0.94965226  0.28812463  0.69391796     1.37500
O1333       O  0.98262396  0.28756836  0.73803585    -0.56100
O1334       O  0.91658334  0.27926557  0.75048938    -0.54900
C1335       C  0.98673389  0.31700481  0.95679316     0.78800
O1336       O  0.91413847  0.30279404  0.69938922    -0.57300
O1337       O  0.97825089  0.32359682  0.74221920    -0.55800
O1338       O  0.93470292  0.24404324  0.99048645    -0.55700
O1339       O  0.99396660  0.32296631  0.99476406    -0.54900
O1340       O  0.80143860  0.24633058  0.76577676    -0.56100
C1341       C  0.81878466  0.31004841  0.73239843     0.76500
O1342       O  0.84114274  0.30973322  0.87194907    -0.57300
C1343       C  0.79250332  0.23380423  0.80017265     0.76500
C1344       C  0.88436791  0.29401300  0.75951140     0.78900
Cd1345     Cd  0.83559794  0.29011476  0.79742625     1.37500
O1346       O  0.80521049  0.28528578  0.74385049    -0.56100
O1347       O  0.87373165  0.30737870  0.74575892    -0.54900
C1348       C  0.82458590  0.31847557  0.86649334     0.78800
O1349       O  0.87494977  0.28155636  0.79420508    -0.57300
O1350       O  0.84091369  0.32598657  0.75133341    -0.55800
O1351       O  0.80541852  0.24608294  0.83321191    -0.55700
O1352       O  0.81550026  0.31622185  0.82961700    -0.54900
O1353       O  0.79900638  0.05556208  0.94629431    -0.56100
C1354       C  0.81628505  0.00850338  0.97775953     0.76500
O1355       O  0.83367745  0.03612680  0.84013511    -0.57300
C1356       C  0.79202634  0.06200975  0.91249055     0.76500
C1357       C  0.88276817  0.09245250  0.95789267     0.78900
Cd1358     Cd  0.83459769  0.04835002  0.91672228     1.37500
O1359       O  0.80052006  0.01525259  0.96018788    -0.56100
O1360       O  0.85987236  0.07908023  0.97539367    -0.54900
C1361       C  0.82606528  0.01105900  0.84619699     0.78800
O1362       O  0.88407135  0.08625388  0.91972359    -0.57300
O1363       O  0.84085194  0.01960556  0.96545275    -0.55800
O1364       O  0.80650675  0.06499640  0.88024957    -0.55700
O1365       O  0.82582184  0.00411736  0.88408104    -0.54900
O1366       O  0.93999721  0.19707187  0.65356076    -0.56100
C1367       C  0.98773639  0.18039447  0.95435995     0.76500
O1368       O  0.96457662  0.15835535  0.75968048    -0.57300
C1369       C  0.93673990  0.20621807  0.68793040     0.76500
C1370       C  0.90607474  0.11462483  0.98079309     0.78900
Cd1371     Cd  0.95062738  0.16367556  0.68525944     1.37500
O1372       O  0.97697869  0.19429800  0.96575146    -0.56100
O1373       O  0.92909718  0.12818453  0.96367715    -0.56100
C1374       C  0.99000929  0.17455182  0.75409340     0.78800
O1375       O  0.90384685  0.12184429  0.68436027    -0.57300
O1376       O  0.98122220  0.15822476  0.97347109    -0.55800
O1377       O  0.93688732  0.19382089  0.72109111    -0.55700
O1378       O  0.99699550  0.18339405  0.71710715    -0.54900
O1379       O  0.75323980  0.20074829  0.83611743    -0.56100
C1380       C  0.68751908  0.18209143  0.86767765     0.76500
O1381       O  0.69777398  0.16456375  0.73013863    -0.57300
C1382       C  0.76642757  0.20809636  0.80208340     0.76500
C1383       C  0.70687637  0.11740211  0.84760302     0.78900
Cd1384     Cd  0.71023704  0.16514866  0.80668128     1.37500
O1385       O  0.71021717  0.19837736  0.85085287    -0.56100
O1386       O  0.71938628  0.14108730  0.86292715    -0.54900
C1387       C  0.68114017  0.17312230  0.73641359     0.78800
O1388       O  0.69625305  0.11513356  0.81140489    -0.57300
O1389       O  0.67454374  0.15754952  0.85494658    -0.55800
O1390       O  0.75465301  0.19390357  0.76964069    -0.55700
O1391       O  0.67584886  0.17507103  0.77445057    -0.54900
O1392       O  0.71460972  0.02411771  0.85211491    -0.56100
C1393       C  0.76643476  0.06245810  0.91051071     0.76500
O1394       O  0.71848040  0.09726048  0.90504109    -0.57300
C1395       C  0.68978096  0.01298665  0.84136119     0.76500
C1396       C  0.68099245  0.00994259  0.97541887     0.78900
Cd1397     Cd  0.71028792  0.04941245  0.90709354     1.37500
O1398       O  0.75444958  0.05991481  0.87589945    -0.56100
O1399       O  0.68512778  0.00335976  0.93944207    -0.54900
C1400       C  0.70584427  0.09421776  0.87055906     0.78800
O1401       O  0.68870292  0.03514636  0.98037811    -0.57300
O1402       O  0.75373119  0.06216532  0.94354637    -0.55800
O1403       O  0.67416548  0.01901572  0.86137864    -0.55700
O1404       O  0.69290869  0.07026632  0.85618007    -0.54900
O1405       O  0.55261729  0.75520822  0.22347842    -0.56100
C1406       C  0.50729054  0.69030860  0.25401452     0.76500
O1407       O  0.53560497  0.70187472  0.11613344    -0.57300
C1408       C  0.55988247  0.76931508  0.19028227     0.76500
C1409       C  0.59046439  0.70935657  0.23624485     0.78900
Cd1410     Cd  0.54708864  0.71326848  0.19327291     1.37500
O1411       O  0.51367558  0.71287600  0.23676716    -0.56100
O1412       O  0.58044228  0.72331770  0.24967585    -0.54900
C1413       C  0.51035013  0.68494069  0.12204138     0.78800
O1414       O  0.58191171  0.69801799  0.20049893    -0.57300
O1415       O  0.51882364  0.67732677  0.24158813    -0.55800
O1416       O  0.56408013  0.75861236  0.15806251    -0.55700
O1417       O  0.50301567  0.67898177  0.15995047    -0.54900
O1418       O  0.69072489  0.71641175  0.24575918    -0.56100
C1419       C  0.70311830  0.76747108  0.30093334     0.76500
O1420       O  0.62121646  0.72053405  0.29495768    -0.57300
C1421       C  0.67717855  0.69167206  0.23419061     0.76500
C1422       C  0.67054489  0.68299318  0.03505933     0.78900
Cd1423     Cd  0.65996513  0.71132145  0.29900927     1.37500
O1424       O  0.69371396  0.75490943  0.26669222    -0.56100
O1425       O  0.67878678  0.68416416  0.99787272    -0.54900
C1426       C  0.61158715  0.70748829  0.26076876     0.78800
O1427       O  0.65487153  0.69275777  0.04081821    -0.57300
O1428       O  0.69080977  0.75526582  0.00126317    -0.55800
O1429       O  0.65503347  0.67568235  0.25302337    -0.55700
O1430       O  0.62166423  0.69337887  0.24811121    -0.54900
O1431       O  0.78560218  0.80334957  0.01631819    -0.56100
C1432       C  0.72911602  0.79323478  0.30218501     0.76500
O1433       O  0.79749103  0.88594973  0.31037338    -0.57300
C1434       C  0.80842934  0.81959397  0.03283730     0.76500
C1435       C  0.81419981  0.82837830  0.23486061     0.78900
Cd1436     Cd  0.78521686  0.83637944  0.30564447     1.37500
O1437       O  0.74256489  0.80087461  0.33594246    -0.56100
O1438       O  0.81958545  0.82649740  0.27288031    -0.54900
C1439       C  0.78853050  0.88394255  0.01451810     0.78800
O1440       O  0.79756215  0.83695786  0.22874888    -0.57300
O1441       O  0.74055674  0.80722939  0.26944334    -0.55800
O1442       O  0.82143457  0.84411764  0.01996248    -0.55700
O1443       O  0.77750836  0.86048192  0.03061333    -0.54900
O1444       O  0.78159098  0.97832898  0.02279394    -0.56100
C1445       C  0.72955635  0.93888489  0.07859053     0.76500
O1446       O  0.77855370  0.90417921  0.07386114    -0.57300
C1447       C  0.80623993  0.98892260  0.01127552     0.76500
C1448       C  0.81526647  0.99072321  0.14475786     0.78900
Cd1449     Cd  0.78562999  0.95173857  0.07596850     1.37500
O1450       O  0.74124658  0.93999431  0.04425782    -0.56100
O1451       O  0.81277221  0.99776019  0.10813387    -0.54900
C1452       C  0.78967890  0.90703698  0.03797771     0.78800
O1453       O  0.80600008  0.96523214  0.15010918    -0.57300
O1454       O  0.74252276  0.94052776  0.11201690    -0.55800
O1455       O  0.82167395  0.98224318  0.03038264    -0.55700
O1456       O  0.80129010  0.93075972  0.02268491    -0.54900
O1457       O  0.69730862  0.94708424  0.11238989    -0.56100
C1458       C  0.67965635  0.99330671  0.14130697     0.76500
O1459       O  0.66411730  0.96476421  0.00450012    -0.57300
C1460       C  0.70399504  0.93940066  0.07953840     0.76500
C1461       C  0.61330687  0.90889420  0.12361098     0.78900
Cd1462     Cd  0.66121464  0.95273462  0.08145790     1.37500
O1463       O  0.69534381  0.98631552  0.12416990    -0.56100
O1464       O  0.63662140  0.92165283  0.13996227    -0.54900
C1465       C  0.67014572  0.98945686  0.01004518     0.78800
O1466       O  0.61141127  0.91540909  0.08585761    -0.57300
O1467       O  0.65508699  0.98215193  0.12899697    -0.55800
O1468       O  0.68921884  0.93516683  0.04716470    -0.55700
O1469       O  0.66852219  0.99606329  0.04748538    -0.54900
O1470       O  0.55787568  0.80509058  0.15434795    -0.56100
C1471       C  0.50903587  0.82048178  0.12125382     0.76500
O1472       O  0.53229105  0.84347592  0.26026766    -0.57300
C1473       C  0.55988747  0.79518442  0.18882786     0.76500
C1474       C  0.59022011  0.88702114  0.14733866     0.78900
Cd1475     Cd  0.54609510  0.83777026  0.18579362     1.37500
O1476       O  0.52066939  0.80725681  0.13183677    -0.56100
O1477       O  0.56649984  0.87468282  0.13221308    -0.54900
C1478       C  0.50686900  0.82710800  0.25478985     0.78800
O1479       O  0.59317199  0.87893732  0.18331607    -0.57300
O1480       O  0.51467488  0.84213183  0.14118983    -0.55800
O1481       O  0.55861614  0.80689137  0.22207380    -0.55700
O1482       O  0.49989756  0.81797990  0.21792752    -0.54900
O1483       O  0.94134869  0.74500092  0.05702834    -0.56100
C1484       C  0.98935686  0.81045720  0.08803265     0.76500
O1485       O  0.96138275  0.79980692  0.28368407    -0.57300
C1486       C  0.93646607  0.73205862  0.02284362     0.76500
C1487       C  0.90577929  0.79230169  0.06900798     0.78900
Cd1488     Cd  0.94953106  0.78818998  0.02711525     1.37500
O1489       O  0.98269654  0.78777657  0.07093035    -0.56100
O1490       O  0.91665749  0.77948137  0.08391281    -0.54900
C1491       C  0.98656228  0.81695431  0.28972942     0.78800
O1492       O  0.91384895  0.80261480  0.03252114    -0.57300
O1493       O  0.97812514  0.82367838  0.07540105    -0.55800
O1494       O  0.93456681  0.74395730  0.32344794    -0.55700
O1495       O  0.99372611  0.82311796  0.32768337    -0.54900
O1496       O  0.80135759  0.74634677  0.09921110    -0.56100
C1497       C  0.81869303  0.81004996  0.06591401     0.76500
O1498       O  0.84091123  0.80944376  0.20553483    -0.57300
C1499       C  0.79240198  0.73382771  0.13360749     0.76500
C1500       C  0.88427365  0.79401587  0.09282924     0.78900
Cd1501     Cd  0.83554648  0.79012432  0.13086712     1.37500
O1502       O  0.80504522  0.78531495  0.07748833    -0.56100
O1503       O  0.87348921  0.80720534  0.07893381    -0.54900
C1504       C  0.82466132  0.81854697  0.19997061     0.78800
O1505       O  0.87501582  0.78173342  0.12769316    -0.57300
O1506       O  0.84088179  0.82595702  0.08473232    -0.55800
O1507       O  0.80530485  0.74610949  0.16664883    -0.55700
O1508       O  0.81589146  0.81668189  0.16295978    -0.54900
O1509       O  0.79900490  0.55545238  0.27957010    -0.56100
C1510       C  0.81628960  0.50833850  0.31125833     0.76500
O1511       O  0.83342099  0.53595002  0.17354659    -0.57300
C1512       C  0.79206424  0.56188257  0.24570564     0.76500
C1513       C  0.88276307  0.59235908  0.29120028     0.78900
Cd1514     Cd  0.83459526  0.54818334  0.25013901     1.37500
O1515       O  0.80051969  0.51505949  0.29364098    -0.56100
O1516       O  0.85967550  0.57951329  0.30827405    -0.54900
C1517       C  0.82593005  0.51090624  0.17957393     0.78800
O1518       O  0.88426305  0.58565757  0.25341022    -0.57300
O1519       O  0.84086534  0.51948155  0.29900034    -0.55800
O1520       O  0.80656216  0.56482037  0.21350391    -0.55700
O1521       O  0.82588739  0.50399334  0.21742311    -0.54900
O1522       O  0.93994125  0.69716414  0.98681431    -0.56100
C1523       C  0.98766080  0.68039481  0.28728157     0.76500
O1524       O  0.96465034  0.65835678  0.09277748    -0.57300
C1525       C  0.93667403  0.70629853  0.02118964     0.76500
C1526       C  0.90606906  0.61451773  0.31412955     0.78900
Cd1527     Cd  0.95060492  0.66378834  0.01848064     1.37500
O1528       O  0.97666668  0.69412848  0.29839681    -0.56100
O1529       O  0.92934663  0.62747610  0.29760667    -0.56100
C1530       C  0.99005620  0.67470636  0.08721169     0.78800
O1531       O  0.90383153  0.62196114  0.01766554    -0.57300
O1532       O  0.98136362  0.65836346  0.30664025    -0.55800
O1533       O  0.93682781  0.69389972  0.05434556    -0.55700
O1534       O  0.99698780  0.68372146  0.05029687    -0.54900
O1535       O  0.75317495  0.70070358  0.16956729    -0.56100
C1536       C  0.68741725  0.68217952  0.20102937     0.76500
O1537       O  0.69775100  0.66474554  0.06355588    -0.57300
C1538       C  0.76632851  0.70811784  0.13550874     0.76500
C1539       C  0.70676855  0.61733059  0.18076002     0.78900
Cd1540     Cd  0.71012397  0.66516770  0.14008935     1.37500
O1541       O  0.71016847  0.69842734  0.18430674    -0.56100
O1542       O  0.71855608  0.64082822  0.19679196    -0.54900
C1543       C  0.68102599  0.67318540  0.06983856     0.78800
O1544       O  0.69678063  0.61529580  0.14410882    -0.57300
O1545       O  0.67438897  0.65765463  0.18821478    -0.55800
O1546       O  0.75452244  0.69398276  0.10304312    -0.55700
O1547       O  0.67559553  0.67494379  0.10787453    -0.54900
O1548       O  0.71453006  0.52393663  0.18500517    -0.56100
C1549       C  0.76648794  0.56235900  0.24361116     0.76500
O1550       O  0.71781010  0.59693195  0.23854522    -0.57300
C1551       C  0.68970009  0.51285256  0.17427297     0.76500
C1552       C  0.68091796  0.50981405  0.30825491     0.78900
Cd1553     Cd  0.71032358  0.54929912  0.23997440     1.37500
O1554       O  0.75452547  0.55976326  0.20896684    -0.56100
O1555       O  0.68518514  0.50323763  0.27235799    -0.54900
C1556       C  0.70583049  0.59410973  0.20346944     0.78800
O1557       O  0.68853861  0.53500025  0.31312851    -0.57300
O1558       O  0.75376844  0.56213979  0.27657946    -0.55800
O1559       O  0.67411205  0.51888853  0.19436765    -0.55700
O1560       O  0.69364635  0.57035476  0.18827195    -0.54900
O1561       O  0.55263295  0.75524712  0.55704008    -0.56100
C1562       C  0.50729195  0.69038191  0.58754436     0.76500
O1563       O  0.53560148  0.70209749  0.44962884    -0.57300
C1564       C  0.55989968  0.76935131  0.52384093     0.76500
C1565       C  0.59047415  0.70936383  0.56966408     0.78900
Cd1566     Cd  0.54708453  0.71329409  0.52678778     1.37500
O1567       O  0.51369467  0.71295290  0.57029164    -0.56100
O1568       O  0.58031342  0.72315182  0.58330104    -0.54900
C1569       C  0.51038705  0.68499611  0.45548325     0.78800
O1570       O  0.58203639  0.69819656  0.53378257    -0.57300
O1571       O  0.51877682  0.67736164  0.57507719    -0.55800
O1572       O  0.56409332  0.75864360  0.49162664    -0.55700
O1573       O  0.50307815  0.67884756  0.49336755    -0.54900
O1574       O  0.69064523  0.71634037  0.57905670    -0.56100
C1575       C  0.70314806  0.76748555  0.63435156     0.76500
O1576       O  0.62109673  0.72034076  0.62851358    -0.57300
C1577       C  0.67709916  0.69157486  0.56761307     0.76500
C1578       C  0.67043277  0.68297245  0.36826252     0.78900
Cd1579     Cd  0.65999166  0.71133523  0.63238782     1.37500
O1580       O  0.69372726  0.75494583  0.60010114    -0.56100
O1581       O  0.67860227  0.68403315  0.33105612    -0.54900
C1582       C  0.61161800  0.70749802  0.59412531     0.78800
O1583       O  0.65484673  0.69283966  0.37400454    -0.57300
O1584       O  0.69072409  0.75522577  0.33431893    -0.55800
O1585       O  0.65500822  0.67559591  0.58658757    -0.55700
O1586       O  0.62186426  0.69359646  0.58121467    -0.54900
O1587       O  0.78545877  0.80323815  0.34951814    -0.56100
C1588       C  0.72914994  0.79324459  0.63561499     0.76500
O1589       O  0.79784760  0.88603653  0.64399796    -0.57300
C1590       C  0.80828892  0.81946706  0.36604658     0.76500
C1591       C  0.81410971  0.82827416  0.56822864     0.78900
Cd1592     Cd  0.78524801  0.83637365  0.63908521     1.37500
O1593       O  0.74260453  0.80086303  0.66937052    -0.56100
O1594       O  0.81946233  0.82631309  0.60623705    -0.54900
C1595       C  0.78844218  0.88381134  0.34774982     0.78800
O1596       O  0.79755787  0.83696629  0.56216420    -0.57300
O1597       O  0.74058566  0.80725646  0.60288301    -0.55800
O1598       O  0.82133755  0.84398140  0.35313099    -0.55700
O1599       O  0.77754102  0.86037023  0.36388990    -0.54900
O1600       O  0.78135718  0.97820355  0.35614991    -0.56100
C1601       C  0.72940795  0.93872001  0.41188729     0.76500
O1602       O  0.77840244  0.90399805  0.40709313    -0.57300
C1603       C  0.80599056  0.98878017  0.34455586     0.76500
C1604       C  0.81523143  0.99052257  0.47796161     0.78900
Cd1605     Cd  0.78547057  0.95155280  0.40922140     1.37500
O1606       O  0.74100567  0.93960487  0.37755875    -0.56100
O1607       O  0.81279725  0.99756764  0.44131249    -0.54900
C1608       C  0.78956110  0.90688440  0.37123015     0.78800
O1609       O  0.80583943  0.96501523  0.48336821    -0.57300
O1610       O  0.74245154  0.94055285  0.44531113    -0.55800
O1611       O  0.82141941  0.98204990  0.36354805    -0.55700
O1612       O  0.80118037  0.93061664  0.35597314    -0.54900
O1613       O  0.69734396  0.94724110  0.44552435    -0.56100
C1614       C  0.67954030  0.99313788  0.47466543     0.76500
O1615       O  0.66411826  0.96477492  0.33769820    -0.57300
C1616       C  0.70387536  0.93929085  0.41280352     0.76500
C1617       C  0.61324123  0.90883361  0.45686317     0.78900
Cd1618     Cd  0.66112919  0.95266646  0.41465641     1.37500
O1619       O  0.69521648  0.98615678  0.45746643    -0.56100
O1620       O  0.63663315  0.92139441  0.47298835    -0.54900
C1621       C  0.67018041  0.98947512  0.34328019     0.78800
O1622       O  0.61124959  0.91551389  0.41925786    -0.57300
O1623       O  0.65497018  0.98201007  0.46236238    -0.55800
O1624       O  0.68897404  0.93483716  0.38051233    -0.55700
O1625       O  0.66856299  0.99606313  0.38073452    -0.54900
O1626       O  0.55781829  0.80506230  0.48785428    -0.56100
C1627       C  0.50904440  0.82047695  0.45462301     0.76500
O1628       O  0.53223066  0.84357779  0.59360585    -0.57300
C1629       C  0.55989696  0.79521543  0.52235159     0.76500
C1630       C  0.59017467  0.88699414  0.48067333     0.78900
Cd1631     Cd  0.54607045  0.83776903  0.51921482     1.37500
O1632       O  0.52065266  0.80723478  0.46525019    -0.56100
O1633       O  0.56638713  0.87480494  0.46578380    -0.54900
C1634       C  0.50682753  0.82709390  0.58817462     0.78800
O1635       O  0.59321173  0.87879475  0.51649726    -0.57300
O1636       O  0.51470669  0.84214538  0.47451908    -0.55800
O1637       O  0.55867823  0.80697070  0.55557886    -0.55700
O1638       O  0.49987858  0.81783852  0.55137131    -0.54900
O1639       O  0.94136523  0.74504769  0.39035716    -0.56100
C1640       C  0.98934997  0.81048727  0.42140792     0.76500
O1641       O  0.96135984  0.79976548  0.61727324    -0.57300
C1642       C  0.93651828  0.73213134  0.35615142     0.76500
C1643       C  0.90568031  0.79227920  0.40237852     0.78900
Cd1644     Cd  0.94949770  0.78823883  0.36051456     1.37500
O1645       O  0.98262733  0.78777265  0.40437744    -0.56100
O1646       O  0.91664358  0.77955958  0.41735985    -0.54900
C1647       C  0.98652053  0.81699584  0.62326844     0.78800
O1648       O  0.91371229  0.80254260  0.36585666    -0.57300
O1649       O  0.97817458  0.82374888  0.40871030    -0.55800
O1650       O  0.93461820  0.74402984  0.65711008    -0.55700
O1651       O  0.99368635  0.82326574  0.66119809    -0.54900
O1652       O  0.80117628  0.74618672  0.43246322    -0.56100
C1653       C  0.81851528  0.80991837  0.39917196     0.76500
O1654       O  0.84075077  0.80928968  0.53881534    -0.57300
C1655       C  0.79220693  0.73367574  0.46686156     0.76500
C1656       C  0.88412527  0.79393571  0.42615429     0.78900
Cd1657     Cd  0.83535031  0.78998059  0.46414350     1.37500
O1658       O  0.80483469  0.78519335  0.41078502    -0.56100
O1659       O  0.87328625  0.80705989  0.41219967    -0.54900
C1660       C  0.82451686  0.81841559  0.53329837     0.78800
O1661       O  0.87487840  0.78166792  0.46103149    -0.57300
O1662       O  0.84071018  0.82581142  0.41798418    -0.55800
O1663       O  0.80510045  0.74596371  0.49990475    -0.55700
O1664       O  0.81572198  0.81655612  0.49630399    -0.54900
O1665       O  0.79897267  0.55566636  0.61312491    -0.56100
C1666       C  0.81617182  0.50845419  0.64467295     0.76500
O1667       O  0.83347342  0.53609904  0.50706983    -0.57300
C1668       C  0.79200725  0.56206095  0.57925234     0.76500
C1669       C  0.88274455  0.59248125  0.62475883     0.78900
Cd1670     Cd  0.83453969  0.54835260  0.58366267     1.37500
O1671       O  0.80043917  0.51526920  0.62717177    -0.56100
O1672       O  0.85974778  0.57940805  0.64205332    -0.54900
C1673       C  0.82593574  0.51104667  0.51312226     0.78800
O1674       O  0.88413294  0.58600039  0.58678875    -0.57300
O1675       O  0.84073621  0.51954809  0.63236990    -0.55800
O1676       O  0.80649149  0.56497903  0.54704401    -0.55700
O1677       O  0.82579734  0.50412877  0.55099302    -0.54900
O1678       O  0.94003356  0.69726413  0.32007961    -0.56100
C1679       C  0.98769478  0.68045471  0.62087174     0.76500
O1680       O  0.96469152  0.65830837  0.42601311    -0.57300
C1681       C  0.93675405  0.70638359  0.35446471     0.76500
C1682       C  0.90607352  0.61464254  0.64764937     0.78900
Cd1683     Cd  0.95065807  0.66384857  0.35174788     1.37500
O1684       O  0.97682833  0.69427715  0.63215436    -0.56100
O1685       O  0.92923324  0.62785409  0.63082811    -0.56100
C1686       C  0.99007853  0.67479633  0.42054278     0.78800
O1687       O  0.90375840  0.62222967  0.35077271    -0.57300
O1688       O  0.98130665  0.65836070  0.64011451    -0.55800
O1689       O  0.93690223  0.69397243  0.38760994    -0.55700
O1690       O  0.99700776  0.68395861  0.38369698    -0.54900
O1691       O  0.75291039  0.70066616  0.50278443    -0.56100
C1692       C  0.68727686  0.68205439  0.53440907     0.76500
O1693       O  0.69753634  0.66461436  0.39680649    -0.57300
C1694       C  0.76612215  0.70797844  0.46877072     0.76500
C1695       C  0.70659107  0.61727374  0.51413707     0.78900
Cd1696     Cd  0.70991841  0.66506090  0.47334988     1.37500
O1697       O  0.70995839  0.69831775  0.51751537    -0.56100
O1698       O  0.71879868  0.64088498  0.52975529    -0.54900
C1699       C  0.68089090  0.67315694  0.40306863     0.78800
O1700       O  0.69619896  0.61509112  0.47776916    -0.57300
O1701       O  0.67426792  0.65750383  0.52171012    -0.55800
O1702       O  0.75436634  0.69375837  0.43634512    -0.55700
O1703       O  0.67551219  0.67499771  0.44110304    -0.54900
O1704       O  0.71465505  0.52412462  0.51838828    -0.56100
C1705       C  0.76641287  0.56250183  0.57714939     0.76500
O1706       O  0.71802223  0.59705688  0.57169740    -0.57300
C1707       C  0.68984605  0.51303290  0.50753822     0.76500
C1708       C  0.68082946  0.50976033  0.64164011     0.78900
Cd1709     Cd  0.71022811  0.54933504  0.57345097     1.37500
O1710       O  0.75446183  0.55990663  0.54249071    -0.56100
O1711       O  0.68517436  0.50323981  0.60575266    -0.54900
C1712       C  0.70564840  0.59408888  0.53696796     0.78800
O1713       O  0.68837866  0.53492805  0.64655007    -0.57300
O1714       O  0.75366574  0.56223764  0.61011425    -0.55800
O1715       O  0.67420252  0.51901684  0.52757581    -0.55700
O1716       O  0.69306930  0.57022006  0.52222162    -0.54900
O1717       O  0.55268430  0.75531449  0.89033899    -0.56100
C1718       C  0.50732933  0.69042618  0.92082376     0.76500
O1719       O  0.53571081  0.70210806  0.78301264    -0.57300
C1720       C  0.56000475  0.76942523  0.85714536     0.76500
C1721       C  0.59055537  0.70945137  0.90317828     0.78900
Cd1722     Cd  0.54719350  0.71337652  0.86017523     1.37500
O1723       O  0.51378294  0.71303322  0.90365470    -0.56100
O1724       O  0.58053515  0.72341464  0.91660823    -0.54900
C1725       C  0.51048432  0.68505940  0.78890053     0.78800
O1726       O  0.58200613  0.69811811  0.86742972    -0.57300
O1727       O  0.51883593  0.67742311  0.90838084    -0.55800
O1728       O  0.56423934  0.75872038  0.82496351    -0.55700
O1729       O  0.50317679  0.67897748  0.82679654    -0.54900
O1730       O  0.69072177  0.71642350  0.91253345    -0.56100
C1731       C  0.70320418  0.76751654  0.96788023     0.76500
O1732       O  0.62132810  0.72063708  0.96187044    -0.57300
C1733       C  0.67714112  0.69168809  0.90095504     0.76500
C1734       C  0.67048468  0.68299042  0.70160050     0.78900
Cd1735     Cd  0.66004217  0.71136477  0.96590007     1.37500
O1736       O  0.69380491  0.75495452  0.93363826    -0.56100
O1737       O  0.67876622  0.68418300  0.66443339    -0.54900
C1738       C  0.61167168  0.70757248  0.92770359     0.78800
O1739       O  0.65478437  0.69272820  0.70731446    -0.57300
O1740       O  0.69076478  0.75522173  0.66773133    -0.55800
O1741       O  0.65501929  0.67570895  0.91985250    -0.55700
O1742       O  0.62171508  0.69342910  0.91506299    -0.54900
O1743       O  0.78554413  0.80328171  0.68301544    -0.56100
C1744       C  0.72918980  0.79329636  0.96911978     0.76500
O1745       O  0.79767162  0.88608127  0.97720615    -0.57300
C1746       C  0.80835573  0.81954093  0.69956294     0.76500
C1747       C  0.81417949  0.82845393  0.90165726     0.78900
Cd1748     Cd  0.78527750  0.83647519  0.97250235     1.37500
O1749       O  0.74262711  0.80098828  0.00288607    -0.56100
O1750       O  0.81961972  0.82661137  0.93966285    -0.54900
C1751       C  0.78852249  0.88383254  0.68119644     0.78800
O1752       O  0.79752429  0.83701562  0.89557758    -0.57300
O1753       O  0.74063071  0.80725916  0.93635306    -0.55800
O1754       O  0.82137732  0.84405037  0.68662753    -0.55700
O1755       O  0.77727460  0.86030990  0.69710158    -0.54900
O1756       O  0.78158984  0.97821505  0.68944031    -0.56100
C1757       C  0.72967318  0.93891257  0.74535132     0.76500
O1758       O  0.77839672  0.90401872  0.74044908    -0.57300
C1759       C  0.80623592  0.98882694  0.67789489     0.76500
C1760       C  0.81540598  0.99063179  0.81146031     0.78900
Cd1761     Cd  0.78572119  0.95167259  0.74267409     1.37500
O1762       O  0.74126669  0.93978883  0.71102047    -0.56100
O1763       O  0.81312570  0.99769235  0.77474261    -0.54900
C1764       C  0.78971889  0.90693014  0.70472470     0.78800
O1765       O  0.80592726  0.96511335  0.81691105    -0.57300
O1766       O  0.74272481  0.94075818  0.77877044    -0.55800
O1767       O  0.82169306  0.98218445  0.69700901    -0.55700
O1768       O  0.80157418  0.93071415  0.68964854    -0.54900
O1769       O  0.69753709  0.94732501  0.77902315    -0.56100
C1770       C  0.67971812  0.99331674  0.80798165     0.76500
O1771       O  0.66416279  0.96479313  0.67112354    -0.57300
C1772       C  0.70412324  0.93945321  0.74627334     0.76500
C1773       C  0.61341883  0.90900620  0.79033945     0.78900
Cd1774     Cd  0.66134028  0.95279032  0.74810393     1.37500
O1775       O  0.69541510  0.98631750  0.79089990    -0.56100
O1776       O  0.63673242  0.92177697  0.80669185    -0.54900
C1777       C  0.67031350  0.98952161  0.67666682     0.78800
O1778       O  0.61152952  0.91548798  0.75256293    -0.57300
O1779       O  0.65516890  0.98220142  0.79557962    -0.55800
O1780       O  0.68925023  0.93503883  0.71396280    -0.55700
O1781       O  0.66882139  0.99617838  0.71412835    -0.54900
O1782       O  0.55798868  0.80516758  0.82112990    -0.56100
C1783       C  0.50919964  0.82058853  0.78788806     0.76500
O1784       O  0.53233530  0.84349788  0.92693933    -0.57300
C1785       C  0.56002441  0.79530025  0.85563369     0.76500
C1786       C  0.59032860  0.88714279  0.81407752     0.78900
Cd1787     Cd  0.54621056  0.83786514  0.85249189     1.37500
O1788       O  0.52084121  0.80736902  0.79846123    -0.56100
O1789       O  0.56661716  0.87478196  0.79892367    -0.54900
C1790       C  0.50691916  0.82712317  0.92142191     0.78800
O1791       O  0.59327077  0.87907638  0.85007607    -0.57300
O1792       O  0.51482523  0.84222957  0.80784035    -0.55800
O1793       O  0.55878161  0.80704703  0.88885119    -0.55700
O1794       O  0.49997192  0.81802507  0.88453957    -0.54900
O1795       O  0.94128844  0.74507725  0.72404735    -0.56100
C1796       C  0.98949902  0.81056426  0.75480828     0.76500
O1797       O  0.96144413  0.79984103  0.95028237    -0.57300
C1798       C  0.93650968  0.73218393  0.68982995     0.76500
C1799       C  0.90580695  0.79245771  0.73606129     0.78900
Cd1800     Cd  0.94953014  0.78830893  0.69412632     1.37500
O1801       O  0.98269109  0.78780787  0.73784808    -0.56100
O1802       O  0.91704598  0.78008632  0.75135294    -0.54900
C1803       C  0.98664074  0.81691193  0.95636847     0.78800
O1804       O  0.91356252  0.80235466  0.69927588    -0.57300
O1805       O  0.97836520  0.82386569  0.74210981    -0.55800
O1806       O  0.93452047  0.74387426  0.99012202    -0.55700
O1807       O  0.99380611  0.82297486  0.99434114    -0.54900
O1808       O  0.80134580  0.74629456  0.76604040    -0.56100
C1809       C  0.81858979  0.81002820  0.73272753     0.76500
O1810       O  0.84081993  0.80945386  0.87233466    -0.57300
C1811       C  0.79230370  0.73381445  0.80044044     0.76500
C1812       C  0.88424178  0.79411855  0.75978381     0.78900
Cd1813     Cd  0.83544494  0.79012333  0.79770945     1.37500
O1814       O  0.80492827  0.78530425  0.74435294    -0.56100
O1815       O  0.87319015  0.80696515  0.74552418    -0.54900
C1816       C  0.82460684  0.81859863  0.86676107     0.78800
O1817       O  0.87518249  0.78211299  0.79489606    -0.57300
O1818       O  0.84077071  0.82594672  0.75155641    -0.55800
O1819       O  0.80513621  0.74612755  0.83350705    -0.55700
O1820       O  0.81584528  0.81675169  0.82974695    -0.54900
O1821       O  0.79911564  0.55573703  0.94626158    -0.56100
C1822       C  0.81607455  0.50827976  0.97775717     0.76500
O1823       O  0.83334913  0.53598783  0.84018151    -0.57300
C1824       C  0.79209421  0.56202179  0.91234040     0.76500
C1825       C  0.88273721  0.59230763  0.95789402     0.78900
Cd1826     Cd  0.83454076  0.54821540  0.91678007     1.37500
O1827       O  0.80035547  0.51510817  0.96023963    -0.56100
O1828       O  0.85974605  0.57920738  0.97519442    -0.54900
C1829       C  0.82589653  0.51095303  0.84619423     0.78800
O1830       O  0.88413230  0.58585687  0.91990739    -0.57300
O1831       O  0.84063622  0.51935203  0.96545343    -0.55800
O1832       O  0.80649950  0.56479963  0.88009434    -0.55700
O1833       O  0.82589732  0.50404747  0.88403487    -0.54900
O1834       O  0.94014109  0.69739562  0.65375758    -0.56100
C1835       C  0.98766870  0.68040843  0.95411489     0.76500
O1836       O  0.96476603  0.65843221  0.75960181    -0.57300
C1837       C  0.93677070  0.70645026  0.68813648     0.76500
C1838       C  0.90604544  0.61447305  0.98079939     0.78900
Cd1839     Cd  0.95070045  0.66393081  0.68534369     1.37500
O1840       O  0.97673942  0.69418347  0.96533598    -0.56100
O1841       O  0.92922158  0.62767142  0.96402555    -0.56100
C1842       C  0.99016579  0.67482079  0.75406375     0.78800
O1843       O  0.90390017  0.62210806  0.68455365    -0.57300
O1844       O  0.98128072  0.65830606  0.97333008    -0.55800
O1845       O  0.93685423  0.69399046  0.72126192    -0.55700
O1846       O  0.99709155  0.68389516  0.71717403    -0.54900
O1847       O  0.75297579  0.70077342  0.83628220    -0.56100
C1848       C  0.68732157  0.68218655  0.86771791     0.76500
O1849       O  0.69774186  0.66482529  0.73016923    -0.57300
C1850       C  0.76621263  0.70812024  0.80229385     0.76500
C1851       C  0.70669550  0.61733735  0.84738479     0.78900
Cd1852     Cd  0.71000281  0.66516662  0.80673655     1.37500
O1853       O  0.71002484  0.69844565  0.85087322    -0.56100
O1854       O  0.71847949  0.64083721  0.86340728    -0.54900
C1855       C  0.68094699  0.67318144  0.73640711     0.78800
O1856       O  0.69668072  0.61529220  0.81075219    -0.57300
O1857       O  0.67430401  0.65764507  0.85497395    -0.55800
O1858       O  0.75447794  0.69393226  0.76983673    -0.55700
O1859       O  0.67542263  0.67484918  0.77442874    -0.54900
O1860       O  0.71454229  0.52395136  0.85165077    -0.56100
C1861       C  0.76651306  0.56248165  0.91023928     0.76500
O1862       O  0.71777143  0.59696016  0.90516257    -0.57300
C1863       C  0.68970752  0.51285789  0.84093796     0.76500
C1864       C  0.68096386  0.50982056  0.97488785     0.78900
Cd1865     Cd  0.71033457  0.54934072  0.90660872     1.37500
O1866       O  0.75451805  0.55979940  0.87560027    -0.56100
O1867       O  0.68523252  0.50326445  0.93897702    -0.54900
C1868       C  0.70578998  0.59412735  0.87008595     0.78800
O1869       O  0.68857993  0.53500402  0.97978954    -0.57300
O1870       O  0.75381603  0.56231603  0.94320264    -0.55800
O1871       O  0.67412787  0.51890993  0.86102422    -0.55700
O1872       O  0.69363213  0.57037269  0.85488620    -0.54900
loop_ 
_geom_bond_atom_site_label_1 
_geom_bond_atom_site_label_2 
_geom_bond_distance 
_geom_bond_site_symmetry_2 
_ccdc_geom_bond_type 
O1            C4   1.259       .  A
O1           Cd6   2.430       .  S
C2           O11   1.267       .  A
C2            O7   1.263       .  A
C2         C1055   1.430   1_455  S
O3            C9   1.274       .  A
O3           Cd6   2.531       .  S
C4           O12   1.270       .  A
C4           C69   1.464       .  S
C5           O10   1.273       .  A
C5            O8   1.257       .  A
C5           C22   1.475       .  S
Cd6          O13   2.500       .  S
Cd6          O12   2.503       .  S
Cd6          O11   2.403       .  S
Cd6           O7   2.335       .  S
Cd6          O10   2.531       .  S
Cd6           O8   2.452       .  S
C9           O13   1.262       .  A
C9         C1062   1.488   1_455  S
O14          C17   1.266       .  A
O14         Cd19   2.338       .  S
C15          O20   1.260       .  A
C15         O180   1.267       .  A
C15          C28   1.462       .  S
O16          C22   1.271       .  A
O16         Cd19   2.503       .  S
C17          O25   1.269       .  A
C17         C132   1.430       .  S
C18          O23   1.273       .  A
C18          O21   1.258   1_554  A
C18         C139   1.486       .  S
Cd19         O26   2.477       .  S
Cd19         O25   2.389       .  S
Cd19         O20   2.460       .  S
Cd19        O180   2.472       .  S
Cd19        O179   2.555       .  S
Cd19        O177   2.484       .  S
O21        Cd331   2.485       .  S
C22          O26   1.258       .  A
O23        Cd331   2.555   1_554  S
O24         C327   1.267   1_554  A
O24        Cd331   2.471   1_554  S
O27          C30   1.264       .  A
O27        Cd344   2.340   1_554  S
C28          O37   1.269       .  A
C28          O33   1.259       .  A
O29         C191   1.273       .  A
O29         Cd32   2.532       .  S
C30          O38   1.267       .  A
C30          C93   1.431       .  S
C31          O36   1.274       .  A
C31          O34   1.262       .  A
C31         C100   1.489       .  S
Cd32         O37   2.500       .  S
Cd32         O33   2.433       .  S
Cd32         O36   2.533       .  S
Cd32         O34   2.507       .  S
Cd32        O183   2.341       .  S
Cd32        O195   2.458       .  S
Cd32        O194   2.402       .  S
C35          O39   1.257       .  A
C35         O341   1.273   1_554  A
C35          C48   1.477       .  S
O38        Cd344   2.402   1_554  S
O39        Cd344   2.458   1_554  S
O40          C43   1.266       .  A
O40         Cd45   2.349       .  S
C41          O50   1.267       .  A
C41          O46   1.260       .  A
C41          C56   1.464       .  S
O42          C48   1.272       .  A
O42         Cd45   2.514       .  S
C43          O51   1.268       .  A
C43         C886   1.431   1_554  S
C44          O49   1.274       .  A
C44          O47   1.259       .  A
C44         C581   1.488       .  S
Cd45         O52   2.474       .  S
Cd45         O51   2.387       .  S
Cd45         O50   2.475       .  S
Cd45         O46   2.470       .  S
Cd45         O49   2.563       .  S
Cd45         O47   2.481       .  S
C48          O52   1.258       .  A
O53          C56   1.259       .  A
O53         Cd58   2.432       .  S
C54          O63   1.268       .  A
C54          O59   1.264       .  A
C54         C615   1.431       .  S
O55          C61   1.272       .  A
O55         Cd58   2.518       .  S
C56          O64   1.269       .  A
C57          O62   1.274       .  A
C57          O60   1.256       .  A
C57          C70   1.477       .  S
Cd58         O65   2.515       .  S
Cd58         O64   2.507       .  S
Cd58         O63   2.396       .  S
Cd58         O59   2.343       .  S
Cd58         O62   2.540       .  S
Cd58         O60   2.452       .  S
C61          O65   1.262       .  A
C61         C928   1.487   1_554  S
O66          C69   1.260       .  A
O66         Cd71   2.470       .  S
C67          O76   1.269       .  A
C67          O72   1.266       .  A
C67        C1016   1.429   1_455  S
O68          C74   1.274       .  A
O68         Cd71   2.558       .  S
C69          O77   1.267       .  A
C70          O75   1.272       .  A
C70          O73   1.257       .  A
Cd71         O78   2.493       .  S
Cd71         O77   2.476       .  S
Cd71         O76   2.381       .  S
Cd71         O72   2.341       .  S
Cd71         O75   2.513       .  S
Cd71         O73   2.480       .  S
C74          O78   1.259       .  A
C74        C1023   1.489   1_455  S
O79          C82   1.259       .  A
O79         Cd84   2.439       .  S
C80          O89   1.267       .  A
C80          O85   1.263       .  A
C80        C1003   1.429       .  S
O81          C87   1.274       .  A
O81        Cd240   2.528       .  S
C82         O402   1.269   1_554  A
C82         C121   1.464       .  S
C83          O88   1.273       .  A
C83          O86   1.257       .  A
C83          C96   1.479       .  S
Cd84         O89   2.393       .  S
Cd84         O85   2.348       .  S
Cd84         O88   2.540       .  S
Cd84         O86   2.459       .  S
Cd84        O393   2.527   1_554  S
Cd84        O403   2.507   1_554  S
Cd84        O402   2.498   1_554  S
C87          O91   1.262       .  A
C87        C1010   1.489       .  S
O90         C238   1.269       .  A
O90        Cd240   2.498       .  S
O91        Cd240   2.507       .  S
O92          C95   1.260       .  A
O92         Cd97   2.465       .  S
C93         O102   1.269       .  A
C93          O98   1.266       .  A
O94         C100   1.274       .  A
O94         Cd97   2.562       .  S
C95         O103   1.267       .  A
C95         C134   1.464       .  S
C96         O101   1.271       .  A
C96          O99   1.258       .  A
Cd97        O104   2.494       .  S
Cd97        O103   2.477       .  S
Cd97        O102   2.394       .  S
Cd97         O98   2.336       .  S
Cd97        O101   2.512       .  S
Cd97         O99   2.487       .  S
C100        O104   1.259       .  A
O105        C108   1.259       .  A
O105       Cd110   2.438       .  S
C106        O115   1.268       .  A
C106        O111   1.264       .  A
C106        C667   1.431   1_545  S
O107        C113   1.272       .  A
O107       Cd110   2.520       .  S
C108        O116   1.269       .  A
C108        C145   1.465       .  S
C109        O114   1.273       .  A
C109        O112   1.256       .  A
C109        C122   1.477       .  S
Cd110       O117   2.516       .  S
Cd110       O116   2.503       .  S
Cd110       O115   2.394       .  S
Cd110       O111   2.347       .  S
Cd110       O114   2.535       .  S
Cd110       O112   2.457       .  S
C113        O117   1.262       .  A
C113        C512   1.488   1_545  S
O118        C121   1.260   1_556  A
O118       Cd123   2.467   1_556  S
C119        O128   1.269       .  A
C119        O124   1.266       .  A
C119        C938   1.430       .  S
O120        C126   1.273       .  A
O120       Cd123   2.555       .  S
C121        O129   1.267       .  A
C122        O125   1.257       .  A
C122        O283   1.272       .  A
Cd123       O130   2.496       .  S
Cd123       O129   2.480       .  S
Cd123       O127   2.516       .  S
Cd123       O440   2.391   1_554  S
Cd123       O436   2.331   1_554  S
Cd123       O437   2.478   1_554  S
O124       Cd279   2.331       .  S
O125       Cd279   2.476       .  S
C126        O130   1.259       .  A
C126        C945   1.488       .  S
O127        C434   1.272   1_554  A
O128       Cd279   2.391       .  S
O131        C134   1.259       .  A
O131       Cd136   2.435       .  S
C132        O141   1.267       .  A
C132        O137   1.264       .  A
O133        C139   1.274       .  A
O133       Cd136   2.525       .  S
C134        O142   1.269       .  A
C135        O140   1.273       .  A
C135        O138   1.257       .  A
C135        C152   1.475       .  S
Cd136       O143   2.502       .  S
Cd136       O142   2.500       .  S
Cd136       O141   2.399       .  S
Cd136       O137   2.345       .  S
Cd136       O140   2.530       .  S
Cd136       O138   2.453       .  S
C139        O143   1.262       .  A
O144        C147   1.266       .  A
O144       Cd149   2.347       .  S
C145        O154   1.267       .  A
C145        O150   1.261       .  A
O146        C152   1.271       .  A
O146       Cd149   2.507       .  S
C147        O155   1.268       .  A
C147        C522   1.431   1_545  S
C148        O153   1.274       .  A
C148        O151   1.259       .  A
C148        C685   1.487   1_545  S
Cd149       O156   2.478       .  S
Cd149       O155   2.390       .  S
Cd149       O154   2.477       .  S
Cd149       O150   2.470       .  S
Cd149       O153   2.562       .  S
Cd149       O151   2.478       .  S
C152        O156   1.258       .  A
O157        C160   1.259       .  A
O157       Cd162   2.429       .  S
C158        O167   1.267       .  A
C158        O163   1.263       .  A
C158       C1211   1.429   1_455  S
O159        C165   1.274       .  A
O159       Cd162   2.532       .  S
C160        O168   1.270       .  A
C160        C225   1.464       .  S
C161        O166   1.273       .  A
C161        O164   1.257       .  A
C161        C178   1.475       .  S
Cd162       O169   2.499       .  S
Cd162       O168   2.504       .  S
Cd162       O167   2.403       .  S
Cd162       O163   2.335       .  S
Cd162       O166   2.531       .  S
Cd162       O164   2.453       .  S
C165        O169   1.262       .  A
C165       C1218   1.488   1_455  S
O170        C173   1.266       .  A
O170       Cd175   2.338       .  S
C171        O336   1.267       .  A
C171        O176   1.260       .  A
C171        C184   1.462       .  S
O172        C178   1.270       .  A
O172       Cd175   2.503       .  S
C173        O181   1.269       .  A
C173        C288   1.430       .  S
C174        O179   1.273       .  A
C174        O177   1.258       .  A
C174        C295   1.486       .  S
Cd175       O182   2.477       .  S
Cd175       O181   2.389       .  S
Cd175       O336   2.472       .  S
Cd175       O176   2.460       .  S
Cd175       O335   2.555       .  S
Cd175       O333   2.485       .  S
C178        O182   1.258       .  A
O183        C186   1.264       .  A
C184        O193   1.269       .  A
C184        O189   1.258       .  A
O185        C347   1.273       .  A
O185       Cd188   2.532       .  S
C186        O194   1.267       .  A
C186        C249   1.431       .  S
C187        O192   1.274       .  A
C187        O190   1.262       .  A
C187        C256   1.489       .  S
Cd188       O339   2.341       .  S
Cd188       O351   2.458       .  S
Cd188       O350   2.402       .  S
Cd188       O193   2.500       .  S
Cd188       O189   2.434       .  S
Cd188       O192   2.533       .  S
Cd188       O190   2.507       .  S
C191        O195   1.257       .  A
C191        C204   1.477       .  S
O196        C199   1.266       .  A
O196       Cd201   2.347       .  S
C197        O206   1.267       .  A
C197        O202   1.260       .  A
C197        C212   1.464       .  S
O198        C204   1.272       .  A
O198       Cd201   2.513       .  S
C199        O207   1.268       .  A
C199        C574   1.431       .  S
C200        O205   1.274       .  A
C200        O203   1.259       .  A
C200        C737   1.488       .  S
Cd201       O208   2.474       .  S
Cd201       O207   2.388       .  S
Cd201       O206   2.476       .  S
Cd201       O202   2.469       .  S
Cd201       O205   2.563       .  S
Cd201       O203   2.481       .  S
C204        O208   1.258       .  A
O209        C212   1.259       .  A
O209       Cd214   2.434       .  S
C210        O219   1.268       .  A
C210        O215   1.264       .  A
C210        C771   1.431       .  S
O211        C217   1.272       .  A
O211       Cd214   2.517       .  S
C212        O220   1.269       .  A
C213        O218   1.274       .  A
C213        O216   1.256       .  A
C213        C226   1.477       .  S
Cd214       O221   2.515       .  S
Cd214       O220   2.506       .  S
Cd214       O219   2.395       .  S
Cd214       O215   2.344       .  S
Cd214       O218   2.540       .  S
Cd214       O216   2.453       .  S
C217        O221   1.262       .  A
C217        C616   1.487       .  S
O222        C225   1.260       .  A
O222       Cd227   2.471       .  S
C223        O232   1.269       .  A
C223        O228   1.266       .  A
C223       C1172   1.429   1_455  S
O224        C230   1.274       .  A
O224       Cd227   2.558       .  S
C225        O233   1.266       .  A
C226        O231   1.272       .  A
C226        O229   1.257       .  A
Cd227       O234   2.494       .  S
Cd227       O233   2.476       .  S
Cd227       O232   2.381       .  S
Cd227       O228   2.341       .  S
Cd227       O231   2.514       .  S
Cd227       O229   2.479       .  S
C230        O234   1.259       .  A
C230       C1179   1.489   1_455  S
O235        C238   1.259       .  A
O235       Cd240   2.439       .  S
C236        O245   1.267       .  A
C236        O241   1.263       .  A
C236       C1159   1.429       .  S
O237        C243   1.274       .  A
O237       Cd396   2.528       .  S
C238        C277   1.464       .  S
C239        O244   1.273       .  A
C239        O242   1.257       .  A
C239        C252   1.479       .  S
Cd240       O245   2.393       .  S
Cd240       O241   2.347       .  S
Cd240       O244   2.539       .  S
Cd240       O242   2.458       .  S
C243        O247   1.262       .  A
C243       C1166   1.489       .  S
O246        C394   1.269       .  A
O246       Cd396   2.498       .  S
O247       Cd396   2.507       .  S
O248        C251   1.260       .  A
O248       Cd253   2.464       .  S
C249        O258   1.269       .  A
C249        O254   1.266       .  A
O250        C256   1.274       .  A
O250       Cd253   2.562       .  S
C251        O259   1.267       .  A
C251        C290   1.464       .  S
C252        O257   1.271       .  A
C252        O255   1.258       .  A
Cd253       O260   2.493       .  S
Cd253       O259   2.477       .  S
Cd253       O258   2.394       .  S
Cd253       O254   2.336       .  S
Cd253       O257   2.512       .  S
Cd253       O255   2.487       .  S
C256        O260   1.259       .  A
O261        C264   1.259       .  A
O261       Cd266   2.437       .  S
C262        O271   1.268       .  A
C262        O267   1.264       .  A
C262        C823   1.431   1_545  S
O263        C269   1.272       .  A
O263       Cd266   2.519       .  S
C264        O272   1.269       .  A
C264        C301   1.465       .  S
C265        O270   1.273       .  A
C265        O268   1.256       .  A
C265        C278   1.477       .  S
Cd266       O273   2.515       .  S
Cd266       O272   2.503       .  S
Cd266       O271   2.396       .  S
Cd266       O267   2.347       .  S
Cd266       O270   2.535       .  S
Cd266       O268   2.456       .  S
C269        O273   1.262       .  A
C269        C668   1.487   1_545  S
O274        C277   1.260       .  A
O274       Cd279   2.467       .  S
C275        O284   1.269       .  A
C275        O280   1.266       .  A
C275       C1094   1.429       .  S
O276        C282   1.273       .  A
O276       Cd279   2.555       .  S
C277        O285   1.267       .  A
C278        O439   1.271       .  A
C278        O281   1.257       .  A
Cd279       O286   2.497       .  S
Cd279       O285   2.480       .  S
Cd279       O283   2.516       .  S
O280       Cd435   2.331       .  S
O281       Cd435   2.478       .  S
C282        O286   1.259       .  A
C282       C1101   1.488       .  S
O284       Cd435   2.391       .  S
O287        C290   1.259       .  A
O287       Cd292   2.436       .  S
C288        O297   1.267       .  A
C288        O293   1.264       .  A
O289        C295   1.274       .  A
O289       Cd292   2.524       .  S
C290        O298   1.269       .  A
C291        O296   1.273       .  A
C291        O294   1.257       .  A
C291        C308   1.475       .  S
Cd292       O299   2.503       .  S
Cd292       O298   2.500       .  S
Cd292       O297   2.398       .  S
Cd292       O293   2.346       .  S
Cd292       O296   2.530       .  S
Cd292       O294   2.453       .  S
C295        O299   1.262       .  A
O300        C303   1.266       .  A
O300       Cd305   2.345       .  S
C301        O310   1.267       .  A
C301        O306   1.261       .  A
O302        C308   1.271       .  A
O302       Cd305   2.508       .  S
C303        O311   1.268       .  A
C303        C678   1.431   1_545  S
C304        O309   1.274       .  A
C304        O307   1.259       .  A
C304        C841   1.487   1_545  S
Cd305       O312   2.477       .  S
Cd305       O311   2.391       .  S
Cd305       O310   2.477       .  S
Cd305       O306   2.471       .  S
Cd305       O309   2.561       .  S
Cd305       O307   2.477       .  S
C308        O312   1.258       .  A
O313        C316   1.259       .  A
O313       Cd318   2.430       .  S
C314        O323   1.267       .  A
C314        O319   1.263       .  A
C314       C1367   1.430   1_455  S
O315        C321   1.274       .  A
O315       Cd318   2.531       .  S
C316        O324   1.270       .  A
C316        C381   1.464       .  S
C317        O322   1.273       .  A
C317        O320   1.257       .  A
C317        C334   1.475       .  S
Cd318       O325   2.500       .  S
Cd318       O324   2.504       .  S
Cd318       O323   2.404       .  S
Cd318       O319   2.335       .  S
Cd318       O322   2.532       .  S
Cd318       O320   2.453       .  S
C321        O325   1.262       .  A
C321       C1374   1.488   1_455  S
O326        C329   1.266       .  A
O326       Cd331   2.338       .  S
C327        O332   1.260       .  A
C327        C340   1.462       .  S
O328        C334   1.271       .  A
O328       Cd331   2.503       .  S
C329        O337   1.269       .  A
C329        C444   1.430       .  S
C330        O335   1.273       .  A
C330        O333   1.258       .  A
C330        C451   1.486       .  S
Cd331       O338   2.477       .  S
Cd331       O337   2.388       .  S
Cd331       O332   2.461       .  S
C334        O338   1.258       .  A
O339        C342   1.264       .  A
C340        O349   1.269       .  A
C340        O345   1.259   1_556  A
O341       Cd344   2.532       .  S
C342        O350   1.267       .  A
C342        C405   1.431       .  S
C343        O348   1.274       .  A
C343        O346   1.262       .  A
C343        C412   1.490       .  S
Cd344       O349   2.501       .  S
Cd344       O345   2.432   1_556  S
Cd344       O348   2.533       .  S
Cd344       O346   2.507       .  S
C347        O351   1.256       .  A
C347        C360   1.477       .  S
O352        C355   1.266       .  A
O352       Cd357   2.347       .  S
C353        O362   1.267       .  A
C353        O358   1.260       .  A
C353        C368   1.464       .  S
O354        C360   1.272       .  A
O354       Cd357   2.514       .  S
C355        O363   1.268       .  A
C355        C730   1.431       .  S
C356        O361   1.274       .  A
C356        O359   1.259       .  A
C356        C893   1.488       .  S
Cd357       O364   2.473       .  S
Cd357       O363   2.387       .  S
Cd357       O362   2.475       .  S
Cd357       O358   2.470       .  S
Cd357       O361   2.563       .  S
Cd357       O359   2.481       .  S
C360        O364   1.258       .  A
O365        C368   1.259       .  A
O365       Cd370   2.432       .  S
C366        O375   1.268       .  A
C366        O371   1.264       .  A
C366        C927   1.431       .  S
O367        C373   1.272       .  A
O367       Cd370   2.517       .  S
C368        O376   1.269       .  A
C369        O374   1.274       .  A
C369        O372   1.256       .  A
C369        C382   1.477       .  S
Cd370       O377   2.515       .  S
Cd370       O376   2.506       .  S
Cd370       O375   2.397       .  S
Cd370       O371   2.344       .  S
Cd370       O374   2.541       .  S
Cd370       O372   2.452       .  S
C373        O377   1.262       .  A
C373        C772   1.487       .  S
O378        C381   1.260       .  A
O378       Cd383   2.470       .  S
C379        O388   1.268       .  A
C379        O384   1.266       .  A
C379       C1328   1.429   1_455  S
O380        C386   1.274       .  A
O380       Cd383   2.559       .  S
C381        O389   1.267       .  A
C382        O387   1.272       .  A
C382        O385   1.257       .  A
Cd383       O390   2.493   1_455  S
Cd383       O389   2.476       .  S
Cd383       O388   2.381       .  S
Cd383       O384   2.342       .  S
Cd383       O387   2.512       .  S
Cd383       O385   2.481       .  S
C386        O390   1.259   1_455  A
C386       C1335   1.489   1_455  S
O391        C394   1.259       .  A
O391       Cd396   2.438       .  S
C392        O401   1.267       .  A
C392        O397   1.263       .  A
C392       C1315   1.429       .  S
O393        C399   1.274       .  A
C394        C433   1.464       .  S
C395        O400   1.273       .  A
C395        O398   1.257       .  A
C395        C408   1.479       .  S
Cd396       O401   2.394       .  S
Cd396       O397   2.348       .  S
Cd396       O400   2.540       .  S
Cd396       O398   2.458       .  S
C399        O403   1.262       .  A
C399       C1322   1.489       .  S
O404        C407   1.260       .  A
O404       Cd409   2.464       .  S
C405        O414   1.269       .  A
C405        O410   1.266       .  A
O406        C412   1.274       .  A
O406       Cd409   2.563       .  S
C407        O415   1.267       .  A
C407        C446   1.464       .  S
C408        O413   1.271       .  A
C408        O411   1.259       .  A
Cd409       O416   2.493       .  S
Cd409       O415   2.476       .  S
Cd409       O414   2.394       .  S
Cd409       O410   2.336       .  S
Cd409       O413   2.512       .  S
Cd409       O411   2.488       .  S
C412        O416   1.259       .  A
O417        C420   1.259       .  A
O417       Cd422   2.438       .  S
C418        O427   1.268       .  A
C418        O423   1.264       .  A
C418        C511   1.431   1_546  S
O419        C425   1.272       .  A
O419       Cd422   2.520       .  S
C420        O428   1.269       .  A
C420        C457   1.465       .  S
C421        O426   1.273       .  A
C421        O424   1.256       .  A
C421        C434   1.477       .  S
Cd422       O429   2.516       .  S
Cd422       O428   2.504       .  S
Cd422       O427   2.396       .  S
Cd422       O423   2.345       .  S
Cd422       O426   2.535       .  S
Cd422       O424   2.457       .  S
C425        O429   1.262       .  A
C425        C824   1.488   1_545  S
O430        C433   1.260       .  A
O430       Cd435   2.467       .  S
C431        O440   1.269       .  A
C431        O436   1.266       .  A
C431       C1250   1.430       .  S
O432        C438   1.273       .  A
O432       Cd435   2.555       .  S
C433        O441   1.267       .  A
C434        O437   1.257       .  A
Cd435       O442   2.495       .  S
Cd435       O441   2.479       .  S
Cd435       O439   2.515       .  S
C438        O442   1.259       .  A
C438       C1257   1.488       .  S
O443        C446   1.259       .  A
O443       Cd448   2.436       .  S
C444        O453   1.267       .  A
C444        O449   1.264       .  A
O445        C451   1.274       .  A
O445       Cd448   2.525       .  S
C446        O454   1.269       .  A
C447        O452   1.273       .  A
C447        O450   1.257       .  A
C447        C464   1.475       .  S
Cd448       O455   2.502       .  S
Cd448       O454   2.500       .  S
Cd448       O453   2.398       .  S
Cd448       O449   2.345       .  S
Cd448       O452   2.530       .  S
Cd448       O450   2.453       .  S
C451        O455   1.262       .  A
O456        C459   1.266       .  A
O456       Cd461   2.346       .  S
C457        O466   1.267       .  A
C457        O462   1.261       .  A
O458        C464   1.271       .  A
O458       Cd461   2.506       .  S
C459        O467   1.268       .  A
C459        C834   1.431   1_545  S
C460        O465   1.274       .  A
C460        O463   1.259       .  A
C460        C529   1.487   1_546  S
Cd461       O468   2.477       .  S
Cd461       O467   2.390       .  S
Cd461       O466   2.477       .  S
Cd461       O462   2.471       .  S
Cd461       O465   2.561       .  S
Cd461       O463   2.477       .  S
C464        O468   1.258       .  A
O469        C472   1.259       .  A
O469       Cd474   2.429       .  S
C470        O479   1.267       .  A
C470        O475   1.263       .  A
C470       C1523   1.429   1_455  S
O471        C477   1.274       .  A
O471       Cd474   2.531       .  S
C472        O480   1.270       .  A
C472        C537   1.464       .  S
C473        O478   1.273       .  A
C473        O476   1.257       .  A
C473        C490   1.476       .  S
Cd474       O481   2.500       .  S
Cd474       O480   2.504       .  S
Cd474       O479   2.403       .  S
Cd474       O475   2.335       .  S
Cd474       O478   2.531       .  S
Cd474       O476   2.453       .  S
C477        O481   1.262       .  A
C477       C1530   1.488   1_455  S
O482        C485   1.266       .  A
O482       Cd487   2.339       .  S
C483        O648   1.267       .  A
C483        O488   1.260       .  A
C483        C496   1.462       .  S
O484        C490   1.270       .  A
O484       Cd487   2.503       .  S
C485        O493   1.269       .  A
C485        C600   1.430       .  S
C486        O491   1.273       .  A
C486        O489   1.258   1_554  A
C486        C607   1.486       .  S
Cd487       O494   2.476       .  S
Cd487       O493   2.389       .  S
Cd487       O648   2.472       .  S
Cd487       O488   2.459       .  S
Cd487       O647   2.556       .  S
Cd487       O645   2.485       .  S
O489       Cd799   2.484       .  S
C490        O494   1.258       .  A
O491       Cd799   2.556   1_554  S
O492        C795   1.267   1_554  A
O492       Cd799   2.473   1_554  S
O495        C498   1.264       .  A
O495       Cd812   2.340   1_554  S
C496        O505   1.269       .  A
C496        O501   1.258       .  A
O497        C659   1.273       .  A
O497       Cd500   2.531       .  S
C498        O506   1.268       .  A
C498        C561   1.431       .  S
C499        O504   1.274       .  A
C499        O502   1.262       .  A
C499        C568   1.489       .  S
Cd500       O651   2.340       .  S
Cd500       O663   2.458       .  S
Cd500       O662   2.401       .  S
Cd500       O505   2.500       .  S
Cd500       O501   2.434       .  S
Cd500       O504   2.534       .  S
Cd500       O502   2.507       .  S
C503        O809   1.273   1_554  A
C503        O507   1.256       .  A
C503        C516   1.477       .  S
O506       Cd812   2.400   1_554  S
O507       Cd812   2.458   1_554  S
O508        C511   1.266       .  A
O508       Cd513   2.346       .  S
C509        O518   1.267       .  A
C509        O514   1.260       .  A
C509        C524   1.464       .  S
O510        C516   1.272       .  A
O510       Cd513   2.515       .  S
C511        O519   1.268       .  A
C512        O517   1.274       .  A
C512        O515   1.259       .  A
Cd513       O520   2.473       .  S
Cd513       O519   2.388       .  S
Cd513       O518   2.475       .  S
Cd513       O514   2.471       .  S
Cd513       O517   2.561       .  S
Cd513       O515   2.483       .  S
C516        O520   1.257       .  A
O521        C524   1.259       .  A
O521       Cd526   2.431       .  S
C522        O531   1.268       .  A
C522        O527   1.264       .  A
O523        C529   1.272       .  A
O523       Cd526   2.517       .  S
C524        O532   1.270       .  A
C525        O530   1.273       .  A
C525        O528   1.256       .  A
C525        C538   1.477       .  S
Cd526       O533   2.514       .  S
Cd526       O532   2.506       .  S
Cd526       O531   2.397       .  S
Cd526       O527   2.344       .  S
Cd526       O530   2.541       .  S
Cd526       O528   2.453       .  S
C529        O533   1.262       .  A
O534        C537   1.260       .  A
O534       Cd539   2.470       .  S
C535        O544   1.268       .  A
C535        O540   1.266       .  A
C535       C1484   1.429   1_455  S
O536        C542   1.274       .  A
O536       Cd539   2.560       .  S
C537        O545   1.267       .  A
C538        O543   1.271       .  A
C538        O541   1.258       .  A
Cd539       O546   2.491   1_455  S
Cd539       O545   2.475       .  S
Cd539       O544   2.383       .  S
Cd539       O540   2.342       .  S
Cd539       O543   2.511       .  S
Cd539       O541   2.482       .  S
C542        O546   1.259   1_455  A
C542       C1491   1.489   1_455  S
O547        C550   1.259       .  A
O547       Cd552   2.438       .  S
C548        O557   1.267       .  A
C548        O553   1.263       .  A
C548       C1471   1.429       .  S
O549        C555   1.274       .  A
O549       Cd708   2.525       .  S
C550        O870   1.269   1_554  A
C550        C589   1.464       .  S
C551        O556   1.273       .  A
C551        O554   1.257       .  A
C551        C564   1.478       .  S
Cd552       O861   2.526   1_554  S
Cd552       O871   2.508   1_554  S
Cd552       O870   2.498   1_554  S
Cd552       O557   2.394       .  S
Cd552       O553   2.348       .  S
Cd552       O556   2.539       .  S
Cd552       O554   2.458       .  S
C555        O559   1.262       .  A
C555       C1478   1.489       .  S
O558        C706   1.269       .  A
O558       Cd708   2.499       .  S
O559       Cd708   2.508       .  S
O560        C563   1.260       .  A
O560       Cd565   2.464       .  S
C561        O570   1.269       .  A
C561        O566   1.266       .  A
O562        C568   1.274       .  A
O562       Cd565   2.562       .  S
C563        O571   1.267       .  A
C563        C602   1.464       .  S
C564        O569   1.271       .  A
C564        O567   1.258       .  A
Cd565       O572   2.495       .  S
Cd565       O571   2.477       .  S
Cd565       O570   2.393       .  S
Cd565       O566   2.336       .  S
Cd565       O569   2.512       .  S
Cd565       O567   2.486       .  S
C568        O572   1.259       .  A
O573        C576   1.259       .  A
O573       Cd578   2.438       .  S
C574        O583   1.268       .  A
C574        O579   1.264       .  A
O575        C581   1.272       .  A
O575       Cd578   2.519       .  S
C576        O584   1.269       .  A
C576        C613   1.465       .  S
C577        O582   1.273       .  A
C577        O580   1.256       .  A
C577        C590   1.477       .  S
Cd578       O585   2.516       .  S
Cd578       O584   2.503       .  S
Cd578       O583   2.397       .  S
Cd578       O579   2.347       .  S
Cd578       O582   2.536       .  S
Cd578       O580   2.456       .  S
C581        O585   1.262       .  A
O586        C589   1.260   1_556  A
O586       Cd591   2.467   1_556  S
C587        O596   1.269       .  A
C587        O592   1.266       .  A
C587       C1406   1.429       .  S
O588        C594   1.273       .  A
O588       Cd591   2.555       .  S
C589        O597   1.267       .  A
C590        O751   1.271       .  A
C590        O593   1.257       .  A
Cd591       O598   2.494       .  S
Cd591       O597   2.479       .  S
Cd591       O908   2.391   1_554  S
Cd591       O904   2.331   1_554  S
Cd591       O595   2.514       .  S
Cd591       O905   2.478   1_554  S
O592       Cd747   2.331       .  S
O593       Cd747   2.479       .  S
C594        O598   1.259       .  A
C594       C1413   1.488       .  S
O595        C902   1.271   1_554  A
O596       Cd747   2.392       .  S
O599        C602   1.259       .  A
O599       Cd604   2.437       .  S
C600        O609   1.267       .  A
C600        O605   1.264       .  A
O601        C607   1.274       .  A
O601       Cd604   2.524       .  S
C602        O610   1.269       .  A
C603        O608   1.273       .  A
C603        O606   1.257       .  A
C603        C620   1.475       .  S
Cd604       O611   2.504       .  S
Cd604       O610   2.500       .  S
Cd604       O609   2.398       .  S
Cd604       O605   2.346       .  S
Cd604       O608   2.530       .  S
Cd604       O606   2.454       .  S
C607        O611   1.262       .  A
O612        C615   1.266       .  A
O612       Cd617   2.346       .  S
C613        O622   1.267       .  A
C613        O618   1.261       .  A
O614        C620   1.271       .  A
O614       Cd617   2.509       .  S
C615        O623   1.268       .  A
C616        O621   1.273       .  A
C616        O619   1.259       .  A
Cd617       O624   2.477       .  S
Cd617       O623   2.391       .  S
Cd617       O622   2.478       .  S
Cd617       O618   2.471       .  S
Cd617       O621   2.562       .  S
Cd617       O619   2.479       .  S
C620        O624   1.258       .  A
O625        C628   1.259       .  A
O625       Cd630   2.430       .  S
C626        O635   1.267       .  A
C626        O631   1.263       .  A
C626       C1679   1.429   1_455  S
O627        C633   1.274       .  A
O627       Cd630   2.530       .  S
C628        O636   1.270       .  A
C628        C693   1.464       .  S
C629        O634   1.273       .  A
C629        O632   1.257       .  A
C629        C646   1.476       .  S
Cd630       O637   2.501       .  S
Cd630       O636   2.504       .  S
Cd630       O635   2.403       .  S
Cd630       O631   2.335       .  S
Cd630       O634   2.531       .  S
Cd630       O632   2.453       .  S
C633        O637   1.262       .  A
C633       C1686   1.488   1_455  S
O638        C641   1.266       .  A
O638       Cd643   2.338       .  S
C639        O804   1.267       .  A
C639        O644   1.260       .  A
C639        C652   1.462       .  S
O640        C646   1.271       .  A
O640       Cd643   2.504       .  S
C641        O649   1.269       .  A
C641        C756   1.430       .  S
C642        O647   1.273       .  A
C642        O645   1.258       .  A
C642        C763   1.486       .  S
Cd643       O650   2.477       .  S
Cd643       O649   2.389       .  S
Cd643       O804   2.472       .  S
Cd643       O644   2.460       .  S
Cd643       O803   2.556       .  S
Cd643       O801   2.484       .  S
C646        O650   1.258       .  A
O651        C654   1.264       .  A
C652        O661   1.269       .  A
C652        O657   1.258       .  A
O653        C815   1.273       .  A
O653       Cd656   2.532       .  S
C654        O662   1.268       .  A
C654        C717   1.431       .  S
C655        O660   1.274       .  A
C655        O658   1.262       .  A
C655        C724   1.489       .  S
Cd656       O807   2.340       .  S
Cd656       O819   2.458       .  S
Cd656       O818   2.401       .  S
Cd656       O661   2.500       .  S
Cd656       O657   2.433       .  S
Cd656       O660   2.534       .  S
Cd656       O658   2.507       .  S
C659        O663   1.256       .  A
C659        C672   1.476       .  S
O664        C667   1.266       .  A
O664       Cd669   2.348       .  S
C665        O674   1.267       .  A
C665        O670   1.260       .  A
C665        C680   1.464       .  S
O666        C672   1.272       .  A
O666       Cd669   2.514       .  S
C667        O675   1.268       .  A
C668        O673   1.274       .  A
C668        O671   1.259       .  A
Cd669       O676   2.472       .  S
Cd669       O675   2.386       .  S
Cd669       O674   2.474       .  S
Cd669       O670   2.472       .  S
Cd669       O673   2.561       .  S
Cd669       O671   2.482       .  S
C672        O676   1.257       .  A
O677        C680   1.259       .  A
O677       Cd682   2.429       .  S
C678        O687   1.268       .  A
C678        O683   1.264       .  A
O679        C685   1.272       .  A
O679       Cd682   2.518       .  S
C680        O688   1.270       .  A
C681        O686   1.273       .  A
C681        O684   1.256       .  A
C681        C694   1.477       .  S
Cd682       O689   2.514       .  S
Cd682       O688   2.507       .  S
Cd682       O687   2.399       .  S
Cd682       O683   2.342       .  S
Cd682       O686   2.541       .  S
Cd682       O684   2.452       .  S
C685        O689   1.262       .  A
O690        C693   1.260       .  A
O690       Cd695   2.469       .  S
C691        O700   1.268       .  A
C691        O696   1.266       .  A
C691       C1640   1.429   1_455  S
O692        C698   1.274       .  A
O692       Cd695   2.560       .  S
C693        O701   1.267       .  A
C694        O699   1.271       .  A
C694        O697   1.258       .  A
Cd695       O702   2.491   1_455  S
Cd695       O701   2.476       .  S
Cd695       O700   2.382       .  S
Cd695       O696   2.343       .  S
Cd695       O699   2.510       .  S
Cd695       O697   2.483       .  S
C698        O702   1.259   1_455  A
C698       C1647   1.489   1_455  S
O703        C706   1.259       .  A
O703       Cd708   2.439       .  S
C704        O713   1.267       .  A
C704        O709   1.263       .  A
C704       C1627   1.429       .  S
O705        C711   1.274       .  A
O705       Cd864   2.525       .  S
C706        C745   1.464       .  S
C707        O712   1.273       .  A
C707        O710   1.257       .  A
C707        C720   1.478       .  S
Cd708       O713   2.394       .  S
Cd708       O709   2.348       .  S
Cd708       O712   2.539       .  S
Cd708       O710   2.458       .  S
C711        O715   1.262       .  A
C711       C1634   1.489       .  S
O714        C862   1.269       .  A
O714       Cd864   2.498       .  S
O715       Cd864   2.508       .  S
O716        C719   1.260       .  A
O716       Cd721   2.465       .  S
C717        O726   1.269       .  A
C717        O722   1.266       .  A
O718        C724   1.274       .  A
O718       Cd721   2.562       .  S
C719        O727   1.267       .  A
C719        C758   1.464       .  S
C720        O725   1.271       .  A
C720        O723   1.258       .  A
Cd721       O728   2.494       .  S
Cd721       O727   2.477       .  S
Cd721       O726   2.393       .  S
Cd721       O722   2.336       .  S
Cd721       O725   2.513       .  S
Cd721       O723   2.486       .  S
C724        O728   1.259       .  A
O729        C732   1.259       .  A
O729       Cd734   2.440       .  S
C730        O739   1.268       .  A
C730        O735   1.264       .  A
O731        C737   1.272       .  A
O731       Cd734   2.519       .  S
C732        O740   1.269       .  A
C732        C769   1.465       .  S
C733        O738   1.273       .  A
C733        O736   1.256       .  A
C733        C746   1.477       .  S
Cd734       O741   2.517       .  S
Cd734       O740   2.503       .  S
Cd734       O739   2.396       .  S
Cd734       O735   2.347       .  S
Cd734       O738   2.535       .  S
Cd734       O736   2.457       .  S
C737        O741   1.262       .  A
O742        C745   1.260       .  A
O742       Cd747   2.468       .  S
C743        O752   1.269       .  A
C743        O748   1.266       .  A
C743       C1562   1.429       .  S
O744        C750   1.273       .  A
O744       Cd747   2.556       .  S
C745        O753   1.267       .  A
C746        O907   1.272       .  A
C746        O749   1.257       .  A
Cd747       O754   2.494       .  S
Cd747       O753   2.479       .  S
Cd747       O751   2.514       .  S
O748       Cd903   2.331       .  S
O749       Cd903   2.477       .  S
C750        O754   1.259       .  A
C750       C1569   1.488       .  S
O752       Cd903   2.391       .  S
O755        C758   1.259       .  A
O755       Cd760   2.436       .  S
C756        O765   1.267       .  A
C756        O761   1.264       .  A
O757        C763   1.274       .  A
O757       Cd760   2.524       .  S
C758        O766   1.269       .  A
C759        O764   1.273       .  A
C759        O762   1.257       .  A
C759        C776   1.475       .  S
Cd760       O767   2.504       .  S
Cd760       O766   2.500       .  S
Cd760       O765   2.399       .  S
Cd760       O761   2.345       .  S
Cd760       O764   2.531       .  S
Cd760       O762   2.453       .  S
C763        O767   1.262       .  A
O768        C771   1.266       .  A
O768       Cd773   2.347       .  S
C769        O778   1.267       .  A
C769        O774   1.261       .  A
O770        C776   1.271       .  A
O770       Cd773   2.508       .  S
C771        O779   1.268       .  A
C772        O777   1.274       .  A
C772        O775   1.259       .  A
Cd773       O780   2.477       .  S
Cd773       O779   2.389       .  S
Cd773       O778   2.478       .  S
Cd773       O774   2.470       .  S
Cd773       O777   2.562       .  S
Cd773       O775   2.478       .  S
C776        O780   1.258       .  A
O781        C784   1.259       .  A
O781       Cd786   2.429       .  S
C782        O791   1.267       .  A
C782        O787   1.263       .  A
C782       C1835   1.429   1_455  S
O783        C789   1.274       .  A
O783       Cd786   2.531       .  S
C784        O792   1.270       .  A
C784        C849   1.464       .  S
C785        O790   1.273       .  A
C785        O788   1.257       .  A
C785        C802   1.475       .  S
Cd786       O793   2.500       .  S
Cd786       O792   2.504       .  S
Cd786       O791   2.402       .  S
Cd786       O787   2.335       .  S
Cd786       O790   2.531       .  S
Cd786       O788   2.453       .  S
C789        O793   1.262       .  A
C789       C1842   1.488   1_455  S
O794        C797   1.266       .  A
O794       Cd799   2.339       .  S
C795        O800   1.260       .  A
C795        C808   1.462       .  S
O796        C802   1.270       .  A
O796       Cd799   2.503       .  S
C797        O805   1.269       .  A
C797        C912   1.430       .  S
C798        O803   1.273       .  A
C798        O801   1.258       .  A
C798        C919   1.487       .  S
Cd799       O806   2.476       .  S
Cd799       O805   2.389       .  S
Cd799       O800   2.459       .  S
C802        O806   1.258       .  A
O807        C810   1.264       .  A
C808        O817   1.269       .  A
C808        O813   1.258   1_556  A
O809       Cd812   2.532       .  S
C810        O818   1.267       .  A
C810        C873   1.431       .  S
C811        O816   1.274       .  A
C811        O814   1.262       .  A
C811        C880   1.489       .  S
Cd812       O817   2.499       .  S
Cd812       O813   2.434   1_556  S
Cd812       O816   2.534       .  S
Cd812       O814   2.506       .  S
C815        O819   1.256       .  A
C815        C828   1.477       .  S
O820        C823   1.266       .  A
O820       Cd825   2.348       .  S
C821        O830   1.267       .  A
C821        O826   1.260       .  A
C821        C836   1.464       .  S
O822        C828   1.272       .  A
O822       Cd825   2.514       .  S
C823        O831   1.268       .  A
C824        O829   1.274       .  A
C824        O827   1.259       .  A
Cd825       O832   2.473       .  S
Cd825       O831   2.387       .  S
Cd825       O830   2.474       .  S
Cd825       O826   2.472       .  S
Cd825       O829   2.561       .  S
Cd825       O827   2.482       .  S
C828        O832   1.258       .  A
O833        C836   1.259       .  A
O833       Cd838   2.430       .  S
C834        O843   1.268       .  A
C834        O839   1.264       .  A
O835        C841   1.272       .  A
O835       Cd838   2.518       .  S
C836        O844   1.270       .  A
C837        O842   1.273       .  A
C837        O840   1.256       .  A
C837        C850   1.477       .  S
Cd838       O845   2.514       .  S
Cd838       O844   2.507       .  S
Cd838       O843   2.397       .  S
Cd838       O839   2.342       .  S
Cd838       O842   2.541       .  S
Cd838       O840   2.453       .  S
C841        O845   1.262       .  A
O846        C849   1.260       .  A
O846       Cd851   2.470       .  S
C847        O856   1.268       .  A
C847        O852   1.266       .  A
C847       C1796   1.429   1_455  S
O848        C854   1.274       .  A
O848       Cd851   2.560       .  S
C849        O857   1.267       .  A
C850        O855   1.271       .  A
C850        O853   1.258       .  A
Cd851       O858   2.492       .  S
Cd851       O857   2.475       .  S
Cd851       O856   2.382       .  S
Cd851       O852   2.342       .  S
Cd851       O855   2.512       .  S
Cd851       O853   2.481       .  S
C854        O858   1.259       .  A
C854       C1803   1.489   1_455  S
O859        C862   1.259       .  A
O859       Cd864   2.439       .  S
C860        O869   1.267       .  A
C860        O865   1.264       .  A
C860       C1783   1.429       .  S
O861        C867   1.274       .  A
C862        C901   1.464       .  S
C863        O868   1.273       .  A
C863        O866   1.257       .  A
C863        C876   1.478       .  S
Cd864       O869   2.393       .  S
Cd864       O865   2.348       .  S
Cd864       O868   2.538       .  S
Cd864       O866   2.458       .  S
C867        O871   1.262       .  A
C867       C1790   1.489       .  S
O872        C875   1.260       .  A
O872       Cd877   2.465       .  S
C873        O882   1.269       .  A
C873        O878   1.266       .  A
O874        C880   1.273       .  A
O874       Cd877   2.561       .  S
C875        O883   1.267       .  A
C875        C914   1.464       .  S
C876        O881   1.271       .  A
C876        O879   1.258       .  A
Cd877       O884   2.494       .  S
Cd877       O883   2.477       .  S
Cd877       O882   2.393       .  S
Cd877       O878   2.336       .  S
Cd877       O881   2.513       .  S
Cd877       O879   2.485       .  S
C880        O884   1.259       .  A
O885        C888   1.259       .  A
O885       Cd890   2.439       .  S
C886        O895   1.267       .  A
C886        O891   1.264       .  A
O887        C893   1.272       .  A
O887       Cd890   2.518       .  S
C888        O896   1.269       .  A
C888        C925   1.465       .  S
C889        O894   1.273       .  A
C889        O892   1.256       .  A
C889        C902   1.477       .  S
Cd890       O897   2.517       .  S
Cd890       O896   2.502       .  S
Cd890       O895   2.396       .  S
Cd890       O891   2.348       .  S
Cd890       O894   2.536       .  S
Cd890       O892   2.456       .  S
C893        O897   1.262       .  A
O898        C901   1.260       .  A
O898       Cd903   2.467       .  S
C899        O908   1.269       .  A
C899        O904   1.266       .  A
C899       C1718   1.429       .  S
O900        C906   1.273       .  A
O900       Cd903   2.556       .  S
C901        O909   1.267       .  A
C902        O905   1.257       .  A
Cd903       O910   2.494       .  S
Cd903       O909   2.480       .  S
Cd903       O907   2.515       .  S
C906        O910   1.259       .  A
C906       C1725   1.488       .  S
O911        C914   1.259       .  A
O911       Cd916   2.436       .  S
C912        O921   1.267       .  A
C912        O917   1.264       .  A
O913        C919   1.274       .  A
O913       Cd916   2.524       .  S
C914        O922   1.269       .  A
C915        O920   1.273       .  A
C915        O918   1.257       .  A
C915        C932   1.476       .  S
Cd916       O923   2.505       .  S
Cd916       O922   2.500       .  S
Cd916       O921   2.399       .  S
Cd916       O917   2.346       .  S
Cd916       O920   2.531       .  S
Cd916       O918   2.454       .  S
C919        O923   1.262       .  A
O924        C927   1.266       .  A
O924       Cd929   2.347       .  S
C925        O934   1.267       .  A
C925        O930   1.261       .  A
O926        C932   1.271       .  A
O926       Cd929   2.509       .  S
C927        O935   1.268       .  A
C928        O933   1.274       .  A
C928        O931   1.259       .  A
Cd929       O936   2.477       .  S
Cd929       O935   2.391       .  S
Cd929       O934   2.478       .  S
Cd929       O930   2.470       .  S
Cd929       O933   2.562       .  S
Cd929       O931   2.478       .  S
C932        O936   1.258       .  A
O937        C940   1.259       .  A
O937       Cd942   2.430       .  S
C938        O947   1.267       .  A
C938        O943   1.263       .  A
O939        C945   1.274       .  A
O939       Cd942   2.532       .  S
C940        O948   1.270       .  A
C940       C1005   1.464       .  S
C941        O946   1.273       .  A
C941        O944   1.257       .  A
C941        C958   1.475       .  S
Cd942       O949   2.500       .  S
Cd942       O948   2.504       .  S
Cd942       O947   2.403       .  S
Cd942       O943   2.336       .  S
Cd942       O946   2.531       .  S
Cd942       O944   2.453       .  S
C945        O949   1.262       .  A
O950        C953   1.266       .  A
O950       Cd955   2.338       .  S
C951       O1116   1.267       .  A
C951        O956   1.260       .  A
C951        C964   1.462       .  S
O952        C958   1.270       .  A
O952       Cd955   2.503       .  S
C953        O961   1.269       .  A
C953       C1068   1.430       .  S
C954        O959   1.273       .  A
C954        O957   1.258   1_554  A
C954       C1075   1.486       .  S
Cd955       O962   2.477       .  S
Cd955       O961   2.389       .  S
Cd955      O1116   2.472       .  S
Cd955       O956   2.460       .  S
Cd955      O1115   2.555       .  S
Cd955      O1113   2.485       .  S
O957      Cd1267   2.485       .  S
C958        O962   1.258       .  A
O959      Cd1267   2.555   1_554  S
O960       C1263   1.267   1_554  A
O960      Cd1267   2.471   1_554  S
O963        C966   1.264       .  A
O963      Cd1280   2.340   1_554  S
C964        O973   1.269       .  A
C964        O969   1.259       .  A
O965       C1127   1.273       .  A
O965       Cd968   2.532       .  S
C966        O974   1.267       .  A
C966       C1029   1.431       .  S
C967        O972   1.274       .  A
C967        O970   1.262       .  A
C967       C1036   1.489       .  S
Cd968      O1119   2.341       .  S
Cd968      O1131   2.458       .  S
Cd968      O1130   2.402       .  S
Cd968       O973   2.500       .  S
Cd968       O969   2.433       .  S
Cd968       O972   2.533       .  S
Cd968       O970   2.507       .  S
C971       O1277   1.273   1_554  A
C971        O975   1.257       .  A
C971        C984   1.477       .  S
O974      Cd1280   2.402   1_554  S
O975      Cd1280   2.458   1_554  S
O976        C979   1.266       .  A
O976       Cd981   2.349       .  S
C977        O986   1.267       .  A
C977        O982   1.260       .  A
C977        C992   1.464       .  S
O978        C984   1.272       .  A
O978       Cd981   2.513       .  S
C979        O987   1.268       .  A
C979       C1822   1.431   1_554  S
C980        O985   1.274       .  A
C980        O983   1.259       .  A
C980       C1517   1.488       .  S
Cd981       O988   2.473       .  S
Cd981       O987   2.387       .  S
Cd981       O986   2.474       .  S
Cd981       O982   2.470       .  S
Cd981       O985   2.562       .  S
Cd981       O983   2.481       .  S
C984        O988   1.258       .  A
O989        C992   1.259       .  A
O989       Cd994   2.431       .  S
C990        O999   1.268       .  A
C990        O995   1.264       .  A
C990       C1551   1.431       .  S
O991        C997   1.272       .  A
O991       Cd994   2.518       .  S
C992       O1000   1.270       .  A
C993        O998   1.274       .  A
C993        O996   1.256       .  A
C993       C1006   1.477       .  S
Cd994      O1001   2.514       .  S
Cd994      O1000   2.507       .  S
Cd994       O999   2.397       .  S
Cd994       O995   2.342       .  S
Cd994       O998   2.541       .  S
Cd994       O996   2.452       .  S
C997       O1001   1.262       .  A
C997       C1864   1.487   1_554  S
O1002      C1005   1.260       .  A
O1002     Cd1007   2.470       .  S
C1003      O1012   1.268       .  A
C1003      O1008   1.266       .  A
O1004      C1010   1.274       .  A
O1004     Cd1007   2.559       .  S
C1005      O1013   1.267       .  A
C1006      O1011   1.272       .  A
C1006      O1009   1.257       .  A
Cd1007     O1014   2.493       .  S
Cd1007     O1013   2.476       .  S
Cd1007     O1012   2.380       .  S
Cd1007     O1008   2.342       .  S
Cd1007     O1011   2.512       .  S
Cd1007     O1009   2.481       .  S
C1010      O1014   1.259       .  A
O1015      C1018   1.259       .  A
O1015     Cd1020   2.439       .  S
C1016      O1025   1.267       .  A
C1016      O1021   1.263       .  A
O1017      C1023   1.274       .  A
O1017     Cd1176   2.528       .  S
C1018      O1338   1.269   1_554  A
C1018      C1057   1.464       .  S
C1019      O1024   1.273       .  A
C1019      O1022   1.257       .  A
C1019      C1032   1.479       .  S
Cd1020     O1329   2.527   1_554  S
Cd1020     O1339   2.507   1_554  S
Cd1020     O1338   2.498   1_554  S
Cd1020     O1025   2.394       .  S
Cd1020     O1021   2.348       .  S
Cd1020     O1024   2.540       .  S
Cd1020     O1022   2.458       .  S
C1023      O1027   1.262       .  A
O1026      C1174   1.269       .  A
O1026     Cd1176   2.498       .  S
O1027     Cd1176   2.507       .  S
O1028      C1031   1.260       .  A
O1028     Cd1033   2.464       .  S
C1029      O1038   1.269       .  A
C1029      O1034   1.266       .  A
O1030      C1036   1.274       .  A
O1030     Cd1033   2.562       .  S
C1031      O1039   1.267       .  A
C1031      C1070   1.464       .  S
C1032      O1037   1.271       .  A
C1032      O1035   1.258       .  A
Cd1033     O1040   2.493       .  S
Cd1033     O1039   2.477       .  S
Cd1033     O1038   2.394       .  S
Cd1033     O1034   2.336       .  S
Cd1033     O1037   2.512       .  S
Cd1033     O1035   2.487       .  S
C1036      O1040   1.259       .  A
O1041      C1044   1.259       .  A
O1041     Cd1046   2.438       .  S
C1042      O1051   1.268       .  A
C1042      O1047   1.264       .  A
C1042      C1603   1.431   1_545  S
O1043      C1049   1.272       .  A
O1043     Cd1046   2.519       .  S
C1044      O1052   1.269       .  A
C1044      C1081   1.465       .  S
C1045      O1050   1.273       .  A
C1045      O1048   1.256       .  A
C1045      C1058   1.476       .  S
Cd1046     O1053   2.516       .  S
Cd1046     O1052   2.503       .  S
Cd1046     O1051   2.395       .  S
Cd1046     O1047   2.347       .  S
Cd1046     O1050   2.535       .  S
Cd1046     O1048   2.457       .  S
C1049      O1053   1.262       .  A
C1049      C1448   1.488   1_545  S
O1054      C1057   1.260   1_556  A
O1054     Cd1059   2.467   1_556  S
C1055      O1064   1.269       .  A
C1055      O1060   1.266       .  A
O1056      C1062   1.273       .  A
O1056     Cd1059   2.555       .  S
C1057      O1065   1.267       .  A
C1058      O1219   1.272       .  A
C1058      O1061   1.257       .  A
Cd1059     O1066   2.496       .  S
Cd1059     O1065   2.480       .  S
Cd1059     O1376   2.392   1_554  S
Cd1059     O1372   2.330   1_554  S
Cd1059     O1063   2.516       .  S
Cd1059     O1373   2.476   1_554  S
O1060     Cd1215   2.331       .  S
O1061     Cd1215   2.476       .  S
C1062      O1066   1.259       .  A
O1063      C1370   1.272   1_554  A
O1064     Cd1215   2.391       .  S
O1067      C1070   1.259       .  A
O1067     Cd1072   2.435       .  S
C1068      O1077   1.267       .  A
C1068      O1073   1.264       .  A
O1069      C1075   1.274       .  A
O1069     Cd1072   2.525       .  S
C1070      O1078   1.269       .  A
C1071      O1076   1.273       .  A
C1071      O1074   1.257       .  A
C1071      C1088   1.476       .  S
Cd1072     O1079   2.503       .  S
Cd1072     O1078   2.500       .  S
Cd1072     O1077   2.399       .  S
Cd1072     O1073   2.345       .  S
Cd1072     O1076   2.531       .  S
Cd1072     O1074   2.453       .  S
C1075      O1079   1.262       .  A
O1080      C1083   1.266       .  A
O1080     Cd1085   2.347       .  S
C1081      O1090   1.267       .  A
C1081      O1086   1.261       .  A
O1082      C1088   1.271       .  A
O1082     Cd1085   2.507       .  S
C1083      O1091   1.268       .  A
C1083      C1458   1.431   1_545  S
C1084      O1089   1.274       .  A
C1084      O1087   1.259       .  A
C1084      C1621   1.487   1_545  S
Cd1085     O1092   2.478       .  S
Cd1085     O1091   2.390       .  S
Cd1085     O1090   2.477       .  S
Cd1085     O1086   2.470       .  S
Cd1085     O1089   2.562       .  S
Cd1085     O1087   2.478       .  S
C1088      O1092   1.258       .  A
O1093      C1096   1.259       .  A
O1093     Cd1098   2.429       .  S
C1094      O1103   1.267       .  A
C1094      O1099   1.263       .  A
O1095      C1101   1.274       .  A
O1095     Cd1098   2.532       .  S
C1096      O1104   1.270       .  A
C1096      C1161   1.464       .  S
C1097      O1102   1.273       .  A
C1097      O1100   1.257       .  A
C1097      C1114   1.475       .  S
Cd1098     O1105   2.499       .  S
Cd1098     O1104   2.504       .  S
Cd1098     O1103   2.403       .  S
Cd1098     O1099   2.336       .  S
Cd1098     O1102   2.531       .  S
Cd1098     O1100   2.453       .  S
C1101      O1105   1.262       .  A
O1106      C1109   1.266       .  A
O1106     Cd1111   2.338       .  S
C1107      O1272   1.267       .  A
C1107      O1112   1.260       .  A
C1107      C1120   1.462       .  S
O1108      C1114   1.270       .  A
O1108     Cd1111   2.503       .  S
C1109      O1117   1.269       .  A
C1109      C1224   1.430       .  S
C1110      O1115   1.273       .  A
C1110      O1113   1.258       .  A
C1110      C1231   1.486       .  S
Cd1111     O1118   2.477       .  S
Cd1111     O1117   2.389       .  S
Cd1111     O1272   2.472       .  S
Cd1111     O1112   2.459       .  S
Cd1111     O1271   2.555       .  S
Cd1111     O1269   2.485       .  S
C1114      O1118   1.258       .  A
O1119      C1122   1.264       .  A
C1120      O1129   1.269       .  A
C1120      O1125   1.258       .  A
O1121      C1283   1.273       .  A
O1121     Cd1124   2.532       .  S
C1122      O1130   1.267       .  A
C1122      C1185   1.431       .  S
C1123      O1128   1.274       .  A
C1123      O1126   1.262       .  A
C1123      C1192   1.489       .  S
Cd1124     O1275   2.341       .  S
Cd1124     O1287   2.458       .  S
Cd1124     O1286   2.401       .  S
Cd1124     O1129   2.500       .  S
Cd1124     O1125   2.434       .  S
Cd1124     O1128   2.533       .  S
Cd1124     O1126   2.507       .  S
C1127      O1131   1.257       .  A
C1127      C1140   1.477       .  S
O1132      C1135   1.266       .  A
O1132     Cd1137   2.347       .  S
C1133      O1142   1.267       .  A
C1133      O1138   1.260       .  A
C1133      C1148   1.464       .  S
O1134      C1140   1.272       .  A
O1134     Cd1137   2.514       .  S
C1135      O1143   1.268       .  A
C1135      C1510   1.431       .  S
C1136      O1141   1.274       .  A
C1136      O1139   1.259       .  A
C1136      C1673   1.488       .  S
Cd1137     O1144   2.474       .  S
Cd1137     O1143   2.388       .  S
Cd1137     O1142   2.476       .  S
Cd1137     O1138   2.469       .  S
Cd1137     O1141   2.563       .  S
Cd1137     O1139   2.481       .  S
C1140      O1144   1.258       .  A
O1145      C1148   1.259       .  A
O1145     Cd1150   2.434       .  S
C1146      O1155   1.268       .  A
C1146      O1151   1.264       .  A
C1146      C1707   1.431       .  S
O1147      C1153   1.272       .  A
O1147     Cd1150   2.517       .  S
C1148      O1156   1.269       .  A
C1149      O1154   1.274       .  A
C1149      O1152   1.256       .  A
C1149      C1162   1.477       .  S
Cd1150     O1157   2.515       .  S
Cd1150     O1156   2.505       .  S
Cd1150     O1155   2.395       .  S
Cd1150     O1151   2.344       .  S
Cd1150     O1154   2.540       .  S
Cd1150     O1152   2.452       .  S
C1153      O1157   1.262       .  A
C1153      C1552   1.487       .  S
O1158      C1161   1.260       .  A
O1158     Cd1163   2.471       .  S
C1159      O1168   1.269       .  A
C1159      O1164   1.266       .  A
O1160      C1166   1.274       .  A
O1160     Cd1163   2.558       .  S
C1161      O1169   1.266       .  A
C1162      O1167   1.272       .  A
C1162      O1165   1.257       .  A
Cd1163     O1170   2.494       .  S
Cd1163     O1169   2.476       .  S
Cd1163     O1168   2.381       .  S
Cd1163     O1164   2.340       .  S
Cd1163     O1167   2.514       .  S
Cd1163     O1165   2.479       .  S
C1166      O1170   1.259       .  A
O1171      C1174   1.259       .  A
O1171     Cd1176   2.438       .  S
C1172      O1181   1.267       .  A
C1172      O1177   1.263       .  A
O1173      C1179   1.274       .  A
O1173     Cd1332   2.528       .  S
C1174      C1213   1.464       .  S
C1175      O1180   1.273       .  A
C1175      O1178   1.257       .  A
C1175      C1188   1.479       .  S
Cd1176     O1181   2.393       .  S
Cd1176     O1177   2.347       .  S
Cd1176     O1180   2.539       .  S
Cd1176     O1178   2.458       .  S
C1179      O1183   1.262       .  A
O1182      C1330   1.269       .  A
O1182     Cd1332   2.499       .  S
O1183     Cd1332   2.507       .  S
O1184      C1187   1.260       .  A
O1184     Cd1189   2.464       .  S
C1185      O1194   1.269       .  A
C1185      O1190   1.266       .  A
O1186      C1192   1.274       .  A
O1186     Cd1189   2.563       .  S
C1187      O1195   1.267       .  A
C1187      C1226   1.464       .  S
C1188      O1193   1.271       .  A
C1188      O1191   1.258       .  A
Cd1189     O1196   2.493       .  S
Cd1189     O1195   2.477       .  S
Cd1189     O1194   2.394       .  S
Cd1189     O1190   2.336       .  S
Cd1189     O1193   2.512       .  S
Cd1189     O1191   2.487       .  S
C1192      O1196   1.259       .  A
O1197      C1200   1.259       .  A
O1197     Cd1202   2.437       .  S
C1198      O1207   1.268       .  A
C1198      O1203   1.264       .  A
C1198      C1759   1.431   1_545  S
O1199      C1205   1.272       .  A
O1199     Cd1202   2.519       .  S
C1200      O1208   1.269       .  A
C1200      C1237   1.465       .  S
C1201      O1206   1.273       .  A
C1201      O1204   1.256       .  A
C1201      C1214   1.477       .  S
Cd1202     O1209   2.516       .  S
Cd1202     O1208   2.503       .  S
Cd1202     O1207   2.395       .  S
Cd1202     O1203   2.347       .  S
Cd1202     O1206   2.535       .  S
Cd1202     O1204   2.456       .  S
C1205      O1209   1.262       .  A
C1205      C1604   1.488   1_545  S
O1210      C1213   1.260       .  A
O1210     Cd1215   2.467       .  S
C1211      O1220   1.269       .  A
C1211      O1216   1.266       .  A
O1212      C1218   1.273       .  A
O1212     Cd1215   2.555       .  S
C1213      O1221   1.267       .  A
C1214      O1375   1.272       .  A
C1214      O1217   1.257       .  A
Cd1215     O1222   2.496       .  S
Cd1215     O1221   2.479       .  S
Cd1215     O1219   2.516       .  S
O1216     Cd1371   2.331       .  S
O1217     Cd1371   2.477       .  S
C1218      O1222   1.259       .  A
O1220     Cd1371   2.391       .  S
O1223      C1226   1.259       .  A
O1223     Cd1228   2.436       .  S
C1224      O1233   1.267       .  A
C1224      O1229   1.264       .  A
O1225      C1231   1.274       .  A
O1225     Cd1228   2.524       .  S
C1226      O1234   1.269       .  A
C1227      O1232   1.273       .  A
C1227      O1230   1.257       .  A
C1227      C1244   1.475       .  S
Cd1228     O1235   2.503       .  S
Cd1228     O1234   2.500       .  S
Cd1228     O1233   2.398       .  S
Cd1228     O1229   2.346       .  S
Cd1228     O1232   2.530       .  S
Cd1228     O1230   2.453       .  S
C1231      O1235   1.262       .  A
O1236      C1239   1.266       .  A
O1236     Cd1241   2.345       .  S
C1237      O1246   1.267       .  A
C1237      O1242   1.261       .  A
O1238      C1244   1.271       .  A
O1238     Cd1241   2.508       .  S
C1239      O1247   1.268       .  A
C1239      C1614   1.431   1_545  S
C1240      O1245   1.274       .  A
C1240      O1243   1.259       .  A
C1240      C1777   1.487   1_545  S
Cd1241     O1248   2.478       .  S
Cd1241     O1247   2.391       .  S
Cd1241     O1246   2.477       .  S
Cd1241     O1242   2.471       .  S
Cd1241     O1245   2.561       .  S
Cd1241     O1243   2.478       .  S
C1244      O1248   1.258       .  A
O1249      C1252   1.259       .  A
O1249     Cd1254   2.430       .  S
C1250      O1259   1.267       .  A
C1250      O1255   1.263       .  A
O1251      C1257   1.274       .  A
O1251     Cd1254   2.532       .  S
C1252      O1260   1.270       .  A
C1252      C1317   1.464       .  S
C1253      O1258   1.273       .  A
C1253      O1256   1.257       .  A
C1253      C1270   1.475       .  S
Cd1254     O1261   2.500       .  S
Cd1254     O1260   2.504       .  S
Cd1254     O1259   2.403       .  S
Cd1254     O1255   2.335       .  S
Cd1254     O1258   2.532       .  S
Cd1254     O1256   2.453       .  S
C1257      O1261   1.262       .  A
O1262      C1265   1.266       .  A
O1262     Cd1267   2.338       .  S
C1263      O1268   1.260       .  A
C1263      C1276   1.462       .  S
O1264      C1270   1.270       .  A
O1264     Cd1267   2.503       .  S
C1265      O1273   1.269       .  A
C1265      C1380   1.430       .  S
C1266      O1271   1.273       .  A
C1266      O1269   1.258       .  A
C1266      C1387   1.486       .  S
Cd1267     O1274   2.477       .  S
Cd1267     O1273   2.388       .  S
Cd1267     O1268   2.461       .  S
C1270      O1274   1.258       .  A
O1275      C1278   1.264       .  A
C1276      O1285   1.269       .  A
C1276      O1281   1.259   1_556  A
O1277     Cd1280   2.532       .  S
C1278      O1286   1.267       .  A
C1278      C1341   1.431       .  S
C1279      O1284   1.274       .  A
C1279      O1282   1.262       .  A
C1279      C1348   1.489       .  S
Cd1280     O1285   2.501       .  S
Cd1280     O1281   2.432   1_556  S
Cd1280     O1284   2.533       .  S
Cd1280     O1282   2.507       .  S
C1283      O1287   1.256       .  A
C1283      C1296   1.477       .  S
O1288      C1291   1.266       .  A
O1288     Cd1293   2.347       .  S
C1289      O1298   1.267       .  A
C1289      O1294   1.260       .  A
C1289      C1304   1.464       .  S
O1290      C1296   1.272       .  A
O1290     Cd1293   2.514       .  S
C1291      O1299   1.268       .  A
C1291      C1666   1.431       .  S
C1292      O1297   1.274       .  A
C1292      O1295   1.259       .  A
C1292      C1829   1.488       .  S
Cd1293     O1300   2.473       .  S
Cd1293     O1299   2.387       .  S
Cd1293     O1298   2.476       .  S
Cd1293     O1294   2.470       .  S
Cd1293     O1297   2.563       .  S
Cd1293     O1295   2.481       .  S
C1296      O1300   1.258       .  A
O1301      C1304   1.259       .  A
O1301     Cd1306   2.432       .  S
C1302      O1311   1.268       .  A
C1302      O1307   1.264       .  A
C1302      C1863   1.431       .  S
O1303      C1309   1.272       .  A
O1303     Cd1306   2.518       .  S
C1304      O1312   1.269       .  A
C1305      O1310   1.274       .  A
C1305      O1308   1.256       .  A
C1305      C1318   1.477       .  S
Cd1306     O1313   2.514       .  S
Cd1306     O1312   2.506       .  S
Cd1306     O1311   2.397       .  S
Cd1306     O1307   2.343       .  S
Cd1306     O1310   2.541       .  S
Cd1306     O1308   2.451       .  S
C1309      O1313   1.262       .  A
C1309      C1708   1.487       .  S
O1314      C1317   1.260       .  A
O1314     Cd1319   2.470       .  S
C1315      O1324   1.268       .  A
C1315      O1320   1.266       .  A
O1316      C1322   1.274       .  A
O1316     Cd1319   2.559       .  S
C1317      O1325   1.267       .  A
C1318      O1323   1.272       .  A
C1318      O1321   1.257       .  A
Cd1319     O1326   2.493       .  S
Cd1319     O1325   2.476       .  S
Cd1319     O1324   2.381       .  S
Cd1319     O1320   2.342       .  S
Cd1319     O1323   2.511       .  S
Cd1319     O1321   2.481       .  S
C1322      O1326   1.259       .  A
O1327      C1330   1.259       .  A
O1327     Cd1332   2.438       .  S
C1328      O1337   1.267       .  A
C1328      O1333   1.263       .  A
O1329      C1335   1.274       .  A
C1330      C1369   1.464       .  S
C1331      O1336   1.273       .  A
C1331      O1334   1.257       .  A
C1331      C1344   1.479       .  S
Cd1332     O1337   2.394       .  S
Cd1332     O1333   2.348       .  S
Cd1332     O1336   2.540       .  S
Cd1332     O1334   2.458       .  S
C1335      O1339   1.262       .  A
O1340      C1343   1.260       .  A
O1340     Cd1345   2.464       .  S
C1341      O1350   1.269       .  A
C1341      O1346   1.266       .  A
O1342      C1348   1.274       .  A
O1342     Cd1345   2.563       .  S
C1343      O1351   1.267       .  A
C1343      C1382   1.464       .  S
C1344      O1349   1.271       .  A
C1344      O1347   1.259       .  A
Cd1345     O1352   2.493       .  S
Cd1345     O1351   2.477       .  S
Cd1345     O1350   2.394       .  S
Cd1345     O1346   2.336       .  S
Cd1345     O1349   2.512       .  S
Cd1345     O1347   2.488       .  S
C1348      O1352   1.259       .  A
O1353      C1356   1.259       .  A
O1353     Cd1358   2.438       .  S
C1354      O1363   1.268       .  A
C1354      O1359   1.264       .  A
C1354      C1447   1.431   1_546  S
O1355      C1361   1.272       .  A
O1355     Cd1358   2.520       .  S
C1356      O1364   1.269       .  A
C1356      C1393   1.465       .  S
C1357      O1362   1.273       .  A
C1357      O1360   1.256       .  A
C1357      C1370   1.477       .  S
Cd1358     O1365   2.516       .  S
Cd1358     O1364   2.504       .  S
Cd1358     O1363   2.396       .  S
Cd1358     O1359   2.346       .  S
Cd1358     O1362   2.535       .  S
Cd1358     O1360   2.457       .  S
C1361      O1365   1.262       .  A
C1361      C1760   1.488   1_545  S
O1366      C1369   1.260       .  A
O1366     Cd1371   2.467       .  S
C1367      O1376   1.269       .  A
C1367      O1372   1.266       .  A
O1368      C1374   1.273       .  A
O1368     Cd1371   2.555       .  S
C1369      O1377   1.267       .  A
C1370      O1373   1.257       .  A
Cd1371     O1378   2.495       .  S
Cd1371     O1377   2.479       .  S
Cd1371     O1375   2.515       .  S
C1374      O1378   1.259       .  A
O1379      C1382   1.259       .  A
O1379     Cd1384   2.436       .  S
C1380      O1389   1.267       .  A
C1380      O1385   1.264       .  A
O1381      C1387   1.274       .  A
O1381     Cd1384   2.524       .  S
C1382      O1390   1.269       .  A
C1383      O1388   1.273       .  A
C1383      O1386   1.257       .  A
C1383      C1400   1.475       .  S
Cd1384     O1391   2.502       .  S
Cd1384     O1390   2.500       .  S
Cd1384     O1389   2.398       .  S
Cd1384     O1385   2.345       .  S
Cd1384     O1388   2.530       .  S
Cd1384     O1386   2.452       .  S
C1387      O1391   1.262       .  A
O1392      C1395   1.266       .  A
O1392     Cd1397   2.346       .  S
C1393      O1402   1.267       .  A
C1393      O1398   1.261       .  A
O1394      C1400   1.271       .  A
O1394     Cd1397   2.507       .  S
C1395      O1403   1.268       .  A
C1395      C1770   1.431   1_545  S
C1396      O1401   1.274       .  A
C1396      O1399   1.259       .  A
C1396      C1465   1.487   1_546  S
Cd1397     O1404   2.478       .  S
Cd1397     O1403   2.390       .  S
Cd1397     O1402   2.477       .  S
Cd1397     O1398   2.471       .  S
Cd1397     O1401   2.561       .  S
Cd1397     O1399   2.478       .  S
C1400      O1404   1.258       .  A
O1405      C1408   1.259       .  A
O1405     Cd1410   2.429       .  S
C1406      O1415   1.267       .  A
C1406      O1411   1.263       .  A
O1407      C1413   1.274       .  A
O1407     Cd1410   2.531       .  S
C1408      O1416   1.270       .  A
C1408      C1473   1.464       .  S
C1409      O1414   1.273       .  A
C1409      O1412   1.257       .  A
C1409      C1426   1.476       .  S
Cd1410     O1417   2.500       .  S
Cd1410     O1416   2.504       .  S
Cd1410     O1415   2.403       .  S
Cd1410     O1411   2.335       .  S
Cd1410     O1414   2.531       .  S
Cd1410     O1412   2.453       .  S
C1413      O1417   1.262       .  A
O1418      C1421   1.266       .  A
O1418     Cd1423   2.339       .  S
C1419      O1584   1.267       .  A
C1419      O1424   1.260       .  A
C1419      C1432   1.462       .  S
O1420      C1426   1.270       .  A
O1420     Cd1423   2.503       .  S
C1421      O1429   1.269       .  A
C1421      C1536   1.430       .  S
C1422      O1427   1.273       .  A
C1422      O1425   1.258   1_554  A
C1422      C1543   1.486       .  S
Cd1423     O1430   2.477       .  S
Cd1423     O1429   2.389       .  S
Cd1423     O1584   2.472       .  S
Cd1423     O1424   2.459       .  S
Cd1423     O1583   2.556       .  S
Cd1423     O1581   2.484       .  S
O1425     Cd1735   2.484       .  S
C1426      O1430   1.258       .  A
O1427     Cd1735   2.556   1_554  S
O1428      C1731   1.267   1_554  A
O1428     Cd1735   2.472   1_554  S
O1431      C1434   1.264       .  A
O1431     Cd1748   2.341   1_554  S
C1432      O1441   1.269       .  A
C1432      O1437   1.258       .  A
O1433      C1595   1.273       .  A
O1433     Cd1436   2.532       .  S
C1434      O1442   1.267       .  A
C1434      C1497   1.431       .  S
C1435      O1440   1.274       .  A
C1435      O1438   1.262       .  A
C1435      C1504   1.489       .  S
Cd1436     O1587   2.340       .  S
Cd1436     O1599   2.458       .  S
Cd1436     O1598   2.400       .  S
Cd1436     O1441   2.500       .  S
Cd1436     O1437   2.433       .  S
Cd1436     O1440   2.534       .  S
Cd1436     O1438   2.507       .  S
C1439      O1745   1.273   1_554  A
C1439      O1443   1.256       .  A
C1439      C1452   1.476       .  S
O1442     Cd1748   2.401   1_554  S
O1443     Cd1748   2.458   1_554  S
O1444      C1447   1.266       .  A
O1444     Cd1449   2.347       .  S
C1445      O1454   1.267       .  A
C1445      O1450   1.260       .  A
C1445      C1460   1.464       .  S
O1446      C1452   1.272       .  A
O1446     Cd1449   2.514       .  S
C1447      O1455   1.268       .  A
C1448      O1453   1.274       .  A
C1448      O1451   1.259       .  A
Cd1449     O1456   2.473       .  S
Cd1449     O1455   2.387       .  S
Cd1449     O1454   2.475       .  S
Cd1449     O1450   2.470       .  S
Cd1449     O1453   2.562       .  S
Cd1449     O1451   2.482       .  S
C1452      O1456   1.258       .  A
O1457      C1460   1.259       .  A
O1457     Cd1462   2.431       .  S
C1458      O1467   1.268       .  A
C1458      O1463   1.264       .  A
O1459      C1465   1.272       .  A
O1459     Cd1462   2.517       .  S
C1460      O1468   1.270       .  A
C1461      O1466   1.273       .  A
C1461      O1464   1.256       .  A
C1461      C1474   1.477       .  S
Cd1462     O1469   2.514       .  S
Cd1462     O1468   2.506       .  S
Cd1462     O1467   2.397       .  S
Cd1462     O1463   2.344       .  S
Cd1462     O1466   2.541       .  S
Cd1462     O1464   2.453       .  S
C1465      O1469   1.262       .  A
O1470      C1473   1.260       .  A
O1470     Cd1475   2.470       .  S
C1471      O1480   1.268       .  A
C1471      O1476   1.266       .  A
O1472      C1478   1.274       .  A
O1472     Cd1475   2.560       .  S
C1473      O1481   1.267       .  A
C1474      O1479   1.271       .  A
C1474      O1477   1.258       .  A
Cd1475     O1482   2.491       .  S
Cd1475     O1481   2.475       .  S
Cd1475     O1480   2.383       .  S
Cd1475     O1476   2.342       .  S
Cd1475     O1479   2.510       .  S
Cd1475     O1477   2.482       .  S
C1478      O1482   1.259       .  A
O1483      C1486   1.259       .  A
O1483     Cd1488   2.438       .  S
C1484      O1493   1.267       .  A
C1484      O1489   1.263       .  A
O1485      C1491   1.274       .  A
O1485     Cd1644   2.526       .  S
C1486      O1806   1.269   1_554  A
C1486      C1525   1.464       .  S
C1487      O1492   1.273       .  A
C1487      O1490   1.257       .  A
C1487      C1500   1.479       .  S
Cd1488     O1797   2.527   1_554  S
Cd1488     O1807   2.507   1_554  S
Cd1488     O1806   2.498   1_554  S
Cd1488     O1493   2.394       .  S
Cd1488     O1489   2.348       .  S
Cd1488     O1492   2.539       .  S
Cd1488     O1490   2.458       .  S
C1491      O1495   1.262       .  A
O1494      C1642   1.269       .  A
O1494     Cd1644   2.499       .  S
O1495     Cd1644   2.508       .  S
O1496      C1499   1.260       .  A
O1496     Cd1501   2.464       .  S
C1497      O1506   1.269       .  A
C1497      O1502   1.266       .  A
O1498      C1504   1.274       .  A
O1498     Cd1501   2.562       .  S
C1499      O1507   1.267       .  A
C1499      C1538   1.464       .  S
C1500      O1505   1.271       .  A
C1500      O1503   1.258       .  A
Cd1501     O1508   2.494       .  S
Cd1501     O1507   2.477       .  S
Cd1501     O1506   2.393       .  S
Cd1501     O1502   2.336       .  S
Cd1501     O1505   2.512       .  S
Cd1501     O1503   2.487       .  S
C1504      O1508   1.259       .  A
O1509      C1512   1.259       .  A
O1509     Cd1514   2.439       .  S
C1510      O1519   1.267       .  A
C1510      O1515   1.264       .  A
O1511      C1517   1.272       .  A
O1511     Cd1514   2.518       .  S
C1512      O1520   1.269       .  A
C1512      C1549   1.465       .  S
C1513      O1518   1.273       .  A
C1513      O1516   1.256       .  A
C1513      C1526   1.477       .  S
Cd1514     O1521   2.516       .  S
Cd1514     O1520   2.503       .  S
Cd1514     O1519   2.397       .  S
Cd1514     O1515   2.347       .  S
Cd1514     O1518   2.536       .  S
Cd1514     O1516   2.456       .  S
C1517      O1521   1.262       .  A
O1522      C1525   1.260   1_556  A
O1522     Cd1527   2.467   1_556  S
C1523      O1532   1.269       .  A
C1523      O1528   1.266       .  A
O1524      C1530   1.273       .  A
O1524     Cd1527   2.555       .  S
C1525      O1533   1.267       .  A
C1526      O1687   1.271       .  A
C1526      O1529   1.257       .  A
Cd1527     O1534   2.494       .  S
Cd1527     O1533   2.479       .  S
Cd1527     O1844   2.391   1_554  S
Cd1527     O1840   2.331   1_554  S
Cd1527     O1531   2.514       .  S
Cd1527     O1841   2.478   1_554  S
O1528     Cd1683   2.331       .  S
O1529     Cd1683   2.479       .  S
C1530      O1534   1.259       .  A
O1531      C1838   1.271   1_554  A
O1532     Cd1683   2.391       .  S
O1535      C1538   1.259       .  A
O1535     Cd1540   2.437       .  S
C1536      O1545   1.267       .  A
C1536      O1541   1.264       .  A
O1537      C1543   1.274       .  A
O1537     Cd1540   2.524       .  S
C1538      O1546   1.269       .  A
C1539      O1544   1.273       .  A
C1539      O1542   1.257       .  A
C1539      C1556   1.475       .  S
Cd1540     O1547   2.504       .  S
Cd1540     O1546   2.500       .  S
Cd1540     O1545   2.398       .  S
Cd1540     O1541   2.346       .  S
Cd1540     O1544   2.530       .  S
Cd1540     O1542   2.454       .  S
C1543      O1547   1.262       .  A
O1548      C1551   1.266       .  A
O1548     Cd1553   2.346       .  S
C1549      O1558   1.267       .  A
C1549      O1554   1.261       .  A
O1550      C1556   1.271       .  A
O1550     Cd1553   2.509       .  S
C1551      O1559   1.268       .  A
C1552      O1557   1.273       .  A
C1552      O1555   1.259       .  A
Cd1553     O1560   2.477       .  S
Cd1553     O1559   2.391       .  S
Cd1553     O1558   2.478       .  S
Cd1553     O1554   2.471       .  S
Cd1553     O1557   2.561       .  S
Cd1553     O1555   2.478       .  S
C1556      O1560   1.258       .  A
O1561      C1564   1.259       .  A
O1561     Cd1566   2.430       .  S
C1562      O1571   1.267       .  A
C1562      O1567   1.263       .  A
O1563      C1569   1.274       .  A
O1563     Cd1566   2.530       .  S
C1564      O1572   1.270       .  A
C1564      C1629   1.464       .  S
C1565      O1570   1.273       .  A
C1565      O1568   1.257       .  A
C1565      C1582   1.475       .  S
Cd1566     O1573   2.501       .  S
Cd1566     O1572   2.504       .  S
Cd1566     O1571   2.403       .  S
Cd1566     O1567   2.335       .  S
Cd1566     O1570   2.531       .  S
Cd1566     O1568   2.453       .  S
C1569      O1573   1.262       .  A
O1574      C1577   1.266       .  A
O1574     Cd1579   2.338       .  S
C1575      O1740   1.267       .  A
C1575      O1580   1.260       .  A
C1575      C1588   1.462       .  S
O1576      C1582   1.271       .  A
O1576     Cd1579   2.503       .  S
C1577      O1585   1.269       .  A
C1577      C1692   1.430       .  S
C1578      O1583   1.273       .  A
C1578      O1581   1.258       .  A
C1578      C1699   1.487       .  S
Cd1579     O1586   2.476       .  S
Cd1579     O1585   2.389       .  S
Cd1579     O1740   2.472       .  S
Cd1579     O1580   2.459       .  S
Cd1579     O1739   2.556       .  S
Cd1579     O1737   2.484       .  S
C1582      O1586   1.258       .  A
O1587      C1590   1.264       .  A
C1588      O1597   1.269       .  A
C1588      O1593   1.258       .  A
O1589      C1751   1.273       .  A
O1589     Cd1592   2.532       .  S
C1590      O1598   1.268       .  A
C1590      C1653   1.431       .  S
C1591      O1596   1.274       .  A
C1591      O1594   1.262       .  A
C1591      C1660   1.489       .  S
Cd1592     O1743   2.341       .  S
Cd1592     O1755   2.458       .  S
Cd1592     O1754   2.401       .  S
Cd1592     O1597   2.500       .  S
Cd1592     O1593   2.433       .  S
Cd1592     O1596   2.534       .  S
Cd1592     O1594   2.507       .  S
C1595      O1599   1.256       .  A
C1595      C1608   1.476       .  S
O1600      C1603   1.266       .  A
O1600     Cd1605   2.348       .  S
C1601      O1610   1.267       .  A
C1601      O1606   1.260       .  A
C1601      C1616   1.464       .  S
O1602      C1608   1.272       .  A
O1602     Cd1605   2.514       .  S
C1603      O1611   1.268       .  A
C1604      O1609   1.274       .  A
C1604      O1607   1.259       .  A
Cd1605     O1612   2.472       .  S
Cd1605     O1611   2.386       .  S
Cd1605     O1610   2.474       .  S
Cd1605     O1606   2.471       .  S
Cd1605     O1609   2.562       .  S
Cd1605     O1607   2.481       .  S
C1608      O1612   1.257       .  A
O1613      C1616   1.259       .  A
O1613     Cd1618   2.429       .  S
C1614      O1623   1.268       .  A
C1614      O1619   1.264       .  A
O1615      C1621   1.272       .  A
O1615     Cd1618   2.518       .  S
C1616      O1624   1.270       .  A
C1617      O1622   1.273       .  A
C1617      O1620   1.256       .  A
C1617      C1630   1.477       .  S
Cd1618     O1625   2.514       .  S
Cd1618     O1624   2.507       .  S
Cd1618     O1623   2.398       .  S
Cd1618     O1619   2.342       .  S
Cd1618     O1622   2.541       .  S
Cd1618     O1620   2.452       .  S
C1621      O1625   1.262       .  A
O1626      C1629   1.260       .  A
O1626     Cd1631   2.469       .  S
C1627      O1636   1.268       .  A
C1627      O1632   1.266       .  A
O1628      C1634   1.274       .  A
O1628     Cd1631   2.560       .  S
C1629      O1637   1.267       .  A
C1630      O1635   1.271       .  A
C1630      O1633   1.258       .  A
Cd1631     O1638   2.490       .  S
Cd1631     O1637   2.476       .  S
Cd1631     O1636   2.382       .  S
Cd1631     O1632   2.343       .  S
Cd1631     O1635   2.510       .  S
Cd1631     O1633   2.482       .  S
C1634      O1638   1.259       .  A
O1639      C1642   1.259       .  A
O1639     Cd1644   2.438       .  S
C1640      O1649   1.267       .  A
C1640      O1645   1.263       .  A
O1641      C1647   1.274       .  A
O1641     Cd1800   2.525       .  S
C1642      C1681   1.464       .  S
C1643      O1648   1.273       .  A
C1643      O1646   1.257       .  A
C1643      C1656   1.479       .  S
Cd1644     O1649   2.394       .  S
Cd1644     O1645   2.348       .  S
Cd1644     O1648   2.540       .  S
Cd1644     O1646   2.458       .  S
C1647      O1651   1.262       .  A
O1650      C1798   1.269       .  A
O1650     Cd1800   2.498       .  S
O1651     Cd1800   2.508       .  S
O1652      C1655   1.260       .  A
O1652     Cd1657   2.465       .  S
C1653      O1662   1.269       .  A
C1653      O1658   1.266       .  A
O1654      C1660   1.274       .  A
O1654     Cd1657   2.562       .  S
C1655      O1663   1.267       .  A
C1655      C1694   1.464       .  S
C1656      O1661   1.271       .  A
C1656      O1659   1.258       .  A
Cd1657     O1664   2.495       .  S
Cd1657     O1663   2.477       .  S
Cd1657     O1662   2.393       .  S
Cd1657     O1658   2.337       .  S
Cd1657     O1661   2.512       .  S
Cd1657     O1659   2.487       .  S
C1660      O1664   1.259       .  A
O1665      C1668   1.259       .  A
O1665     Cd1670   2.439       .  S
C1666      O1675   1.268       .  A
C1666      O1671   1.264       .  A
O1667      C1673   1.272       .  A
O1667     Cd1670   2.519       .  S
C1668      O1676   1.269       .  A
C1668      C1705   1.465       .  S
C1669      O1674   1.273       .  A
C1669      O1672   1.256       .  A
C1669      C1682   1.477       .  S
Cd1670     O1677   2.517       .  S
Cd1670     O1676   2.503       .  S
Cd1670     O1675   2.396       .  S
Cd1670     O1671   2.347       .  S
Cd1670     O1674   2.535       .  S
Cd1670     O1672   2.457       .  S
C1673      O1677   1.262       .  A
O1678      C1681   1.260       .  A
O1678     Cd1683   2.468       .  S
C1679      O1688   1.269       .  A
C1679      O1684   1.266       .  A
O1680      C1686   1.273       .  A
O1680     Cd1683   2.556       .  S
C1681      O1689   1.267       .  A
C1682      O1843   1.272       .  A
C1682      O1685   1.257       .  A
Cd1683     O1690   2.494       .  S
Cd1683     O1689   2.479       .  S
Cd1683     O1687   2.514       .  S
O1684     Cd1839   2.331       .  S
O1685     Cd1839   2.478       .  S
C1686      O1690   1.259       .  A
O1688     Cd1839   2.391       .  S
O1691      C1694   1.259       .  A
O1691     Cd1696   2.436       .  S
C1692      O1701   1.267       .  A
C1692      O1697   1.264       .  A
O1693      C1699   1.274       .  A
O1693     Cd1696   2.524       .  S
C1694      O1702   1.269       .  A
C1695      O1700   1.273       .  A
C1695      O1698   1.257       .  A
C1695      C1712   1.475       .  S
Cd1696     O1703   2.504       .  S
Cd1696     O1702   2.500       .  S
Cd1696     O1701   2.399       .  S
Cd1696     O1697   2.345       .  S
Cd1696     O1700   2.531       .  S
Cd1696     O1698   2.453       .  S
C1699      O1703   1.262       .  A
O1704      C1707   1.266       .  A
O1704     Cd1709   2.347       .  S
C1705      O1714   1.267       .  A
C1705      O1710   1.261       .  A
O1706      C1712   1.271       .  A
O1706     Cd1709   2.507       .  S
C1707      O1715   1.268       .  A
C1708      O1713   1.274       .  A
C1708      O1711   1.259       .  A
Cd1709     O1716   2.478       .  S
Cd1709     O1715   2.389       .  S
Cd1709     O1714   2.478       .  S
Cd1709     O1710   2.470       .  S
Cd1709     O1713   2.562       .  S
Cd1709     O1711   2.478       .  S
C1712      O1716   1.258       .  A
O1717      C1720   1.259       .  A
O1717     Cd1722   2.429       .  S
C1718      O1727   1.267       .  A
C1718      O1723   1.263       .  A
O1719      C1725   1.274       .  A
O1719     Cd1722   2.531       .  S
C1720      O1728   1.270       .  A
C1720      C1785   1.464       .  S
C1721      O1726   1.273       .  A
C1721      O1724   1.257       .  A
C1721      C1738   1.476       .  S
Cd1722     O1729   2.500       .  S
Cd1722     O1728   2.504       .  S
Cd1722     O1727   2.402       .  S
Cd1722     O1723   2.335       .  S
Cd1722     O1726   2.531       .  S
Cd1722     O1724   2.454       .  S
C1725      O1729   1.262       .  A
O1730      C1733   1.266       .  A
O1730     Cd1735   2.340       .  S
C1731      O1736   1.260       .  A
C1731      C1744   1.462       .  S
O1732      C1738   1.270       .  A
O1732     Cd1735   2.503       .  S
C1733      O1741   1.269       .  A
C1733      C1848   1.430       .  S
C1734      O1739   1.273       .  A
C1734      O1737   1.258       .  A
C1734      C1855   1.486       .  S
Cd1735     O1742   2.477       .  S
Cd1735     O1741   2.389       .  S
Cd1735     O1736   2.459       .  S
C1738      O1742   1.258       .  A
O1743      C1746   1.264       .  A
C1744      O1753   1.269       .  A
C1744      O1749   1.258   1_556  A
O1745     Cd1748   2.532       .  S
C1746      O1754   1.267       .  A
C1746      C1809   1.431       .  S
C1747      O1752   1.274       .  A
C1747      O1750   1.262       .  A
C1747      C1816   1.489       .  S
Cd1748     O1753   2.499       .  S
Cd1748     O1749   2.434   1_556  S
Cd1748     O1752   2.533       .  S
Cd1748     O1750   2.506       .  S
C1751      O1755   1.256       .  A
C1751      C1764   1.477       .  S
O1756      C1759   1.266       .  A
O1756     Cd1761   2.348       .  S
C1757      O1766   1.267       .  A
C1757      O1762   1.260       .  A
C1757      C1772   1.464       .  S
O1758      C1764   1.272       .  A
O1758     Cd1761   2.514       .  S
C1759      O1767   1.268       .  A
C1760      O1765   1.274       .  A
C1760      O1763   1.259       .  A
Cd1761     O1768   2.473       .  S
Cd1761     O1767   2.387       .  S
Cd1761     O1766   2.474       .  S
Cd1761     O1762   2.471       .  S
Cd1761     O1765   2.561       .  S
Cd1761     O1763   2.482       .  S
C1764      O1768   1.258       .  A
O1769      C1772   1.259       .  A
O1769     Cd1774   2.430       .  S
C1770      O1779   1.268       .  A
C1770      O1775   1.264       .  A
O1771      C1777   1.272       .  A
O1771     Cd1774   2.518       .  S
C1772      O1780   1.270       .  A
C1773      O1778   1.273       .  A
C1773      O1776   1.256       .  A
C1773      C1786   1.477       .  S
Cd1774     O1781   2.514       .  S
Cd1774     O1780   2.507       .  S
Cd1774     O1779   2.397       .  S
Cd1774     O1775   2.343       .  S
Cd1774     O1778   2.541       .  S
Cd1774     O1776   2.453       .  S
C1777      O1781   1.262       .  A
O1782      C1785   1.260       .  A
O1782     Cd1787   2.470       .  S
C1783      O1792   1.268       .  A
C1783      O1788   1.266       .  A
O1784      C1790   1.274       .  A
O1784     Cd1787   2.560       .  S
C1785      O1793   1.267       .  A
C1786      O1791   1.271       .  A
C1786      O1789   1.258       .  A
Cd1787     O1794   2.491       .  S
Cd1787     O1793   2.475       .  S
Cd1787     O1792   2.382       .  S
Cd1787     O1788   2.343       .  S
Cd1787     O1791   2.511       .  S
Cd1787     O1789   2.482       .  S
C1790      O1794   1.259       .  A
O1795      C1798   1.259       .  A
O1795     Cd1800   2.440       .  S
C1796      O1805   1.267       .  A
C1796      O1801   1.263       .  A
O1797      C1803   1.274       .  A
C1798      C1837   1.464       .  S
C1799      O1804   1.273       .  A
C1799      O1802   1.257       .  A
C1799      C1812   1.478       .  S
Cd1800     O1805   2.394       .  S
Cd1800     O1801   2.348       .  S
Cd1800     O1804   2.539       .  S
Cd1800     O1802   2.458       .  S
C1803      O1807   1.262       .  A
O1808      C1811   1.260       .  A
O1808     Cd1813   2.465       .  S
C1809      O1818   1.269       .  A
C1809      O1814   1.266       .  A
O1810      C1816   1.273       .  A
O1810     Cd1813   2.561       .  S
C1811      O1819   1.267       .  A
C1811      C1850   1.464       .  S
C1812      O1817   1.271       .  A
C1812      O1815   1.258       .  A
Cd1813     O1820   2.494       .  S
Cd1813     O1819   2.477       .  S
Cd1813     O1818   2.393       .  S
Cd1813     O1814   2.336       .  S
Cd1813     O1817   2.513       .  S
Cd1813     O1815   2.485       .  S
C1816      O1820   1.259       .  A
O1821      C1824   1.259       .  A
O1821     Cd1826   2.439       .  S
C1822      O1831   1.267       .  A
C1822      O1827   1.264       .  A
O1823      C1829   1.272       .  A
O1823     Cd1826   2.518       .  S
C1824      O1832   1.269       .  A
C1824      C1861   1.465       .  S
C1825      O1830   1.273       .  A
C1825      O1828   1.256       .  A
C1825      C1838   1.477       .  S
Cd1826     O1833   2.516       .  S
Cd1826     O1832   2.502       .  S
Cd1826     O1831   2.395       .  S
Cd1826     O1827   2.348       .  S
Cd1826     O1830   2.535       .  S
Cd1826     O1828   2.456       .  S
C1829      O1833   1.262       .  A
O1834      C1837   1.260       .  A
O1834     Cd1839   2.467       .  S
C1835      O1844   1.269       .  A
C1835      O1840   1.266       .  A
O1836      C1842   1.273       .  A
O1836     Cd1839   2.556       .  S
C1837      O1845   1.267       .  A
C1838      O1841   1.257       .  A
Cd1839     O1846   2.495       .  S
Cd1839     O1845   2.480       .  S
Cd1839     O1843   2.515       .  S
C1842      O1846   1.259       .  A
O1847      C1850   1.259       .  A
O1847     Cd1852   2.436       .  S
C1848      O1857   1.267       .  A
C1848      O1853   1.264       .  A
O1849      C1855   1.274       .  A
O1849     Cd1852   2.524       .  S
C1850      O1858   1.269       .  A
C1851      O1856   1.273       .  A
C1851      O1854   1.257       .  A
C1851      C1868   1.476       .  S
Cd1852     O1859   2.504       .  S
Cd1852     O1858   2.500       .  S
Cd1852     O1857   2.399       .  S
Cd1852     O1853   2.346       .  S
Cd1852     O1856   2.531       .  S
Cd1852     O1854   2.454       .  S
C1855      O1859   1.262       .  A
O1860      C1863   1.266       .  A
O1860     Cd1865   2.346       .  S
C1861      O1870   1.267       .  A
C1861      O1866   1.261       .  A
O1862      C1868   1.271       .  A
O1862     Cd1865   2.509       .  S
C1863      O1871   1.268       .  A
C1864      O1869   1.274       .  A
C1864      O1867   1.259       .  A
Cd1865     O1872   2.477       .  S
Cd1865     O1871   2.390       .  S
Cd1865     O1870   2.478       .  S
Cd1865     O1866   2.470       .  S
Cd1865     O1869   2.562       .  S
Cd1865     O1867   2.479       .  S
C1868      O1872   1.258       .  A
