geometry optimzed in LAMMPS
_audit_creation_date              2020-12-01 
_audit_creation_method            'lammps2cif' 
_symmetry_space_group_name_H-M    'P1' 
_symmetry_Int_Tables_number       1 
_symmetry_cell_setting            triclinic 
loop_ 
_symmetry_equiv_pos_as_xyz 
  x,y,z 
_cell_length_a                    31.73242077 
_cell_length_b                    31.753045351221598 
_cell_length_c                    34.673915140157106 
_cell_angle_alpha                 89.98056762795511 
_cell_angle_beta                  90.03827345911161 
_cell_angle_gamma                 90.00152325393108 
loop_ 
_atom_site_label 
_atom_site_type_symbol 
_atom_site_fract_x 
_atom_site_fract_y 
_atom_site_fract_z 
_atom_site_charge 
Fe1        Fe  0.48405283  0.98271012  0.12998389     1.65800
Fe2        Fe  0.45002502  0.88882272  0.15971648     1.73200
Fe3        Fe  0.38921409  0.94777086  0.10119026     1.54400
O4          O  0.37885667  0.00492916  0.12576653    -0.80400
O5          O  0.41905364  0.84947126  0.11960878    -0.78700
O6          O  0.44232662  0.03263397  0.11920471    -0.82900
O7          O  0.49105758  0.97464764  0.07329144    -0.77700
O8          O  0.35200750  0.92102323  0.14510157    -0.79500
O9          O  0.50333705  0.87771144  0.12811785    -0.82200
C10         C  0.46290573  0.97944737  0.04800200     0.98500
C11         C  0.40239704  0.03594552  0.11878962     1.06000
O12         O  0.44026995  0.93977738  0.13061093    -1.11200
O13         O  0.48133787  0.92354825  0.20419407    -0.73700
O14         O  0.47784314  0.99140653  0.18742829    -0.77100
O15         O  0.42342300  0.97491139  0.05491558    -0.77800
C16         C  0.48385230  0.96302243  0.21241346     0.97400
O17         O  0.53350924  0.93946046  0.13710400    -0.75800
O18         O  0.39571191  0.89582373  0.19038717    -0.81000
C19         C  0.40142906  0.85511576  0.08685472     1.00100
C20         C  0.35903176  0.90437441  0.17815320     1.06000
O21         O  0.39390645  0.89137590  0.07354063    -0.76600
C22         C  0.53436486  0.90207812  0.12390131     1.04300
Fe23       Fe  0.01106808  0.01215549  0.37971172     1.65800
Fe24       Fe  0.04557841  0.10570562  0.40976428     1.73200
Fe25       Fe  0.10626265  0.04642769  0.35148959     1.54400
O26         O  0.11607794  0.98911513  0.37600426    -0.80400
O27         O  0.07686942  0.14490854  0.36984175    -0.78700
O28         O  0.05245381  0.96194280  0.36888177    -0.82900
O29         O  0.00435618  0.02061848  0.32303919    -0.77700
O30         O  0.14344908  0.07282757  0.39562626    -0.79500
O31         O  0.99248625  0.11723914  0.37790182    -0.82200
C32         C  0.03257053  0.01544486  0.29790949     0.98500
C33         C  0.09236288  0.95833135  0.36865169     1.06000
O34         O  0.05514988  0.05474093  0.38066643    -1.11200
O35         O  0.01388675  0.07106784  0.45401152    -0.73700
O36         O  0.01704392  0.00322207  0.43713504    -0.77100
O37         O  0.07206255  0.01962249  0.30501164    -0.77800
C38         C  0.01115474  0.03158762  0.46214480     0.97400
O39         O  0.96191120  0.05570102  0.38682325    -0.75800
O40         O  0.09974385  0.09834775  0.44069608    -0.81000
C41         C  0.09451929  0.13917821  0.33714867     1.00100
C42         C  0.13641641  0.08954799  0.42862897     1.06000
O43         O  0.10203550  0.10289904  0.32391177    -0.76600
C44         C  0.96132465  0.09307403  0.37358129     1.04300
Fe45       Fe  0.23290908  0.76053830  0.25475381     1.65800
Fe46       Fe  0.13902967  0.79451112  0.28459484     1.73200
Fe47       Fe  0.19809395  0.85550734  0.22637841     1.54400
O48         O  0.25542797  0.86553488  0.25081941    -0.80400
O49         O  0.09963814  0.82550801  0.24458640    -0.78700
O50         O  0.28293394  0.80209130  0.24385558    -0.82900
O51         O  0.22455969  0.75370492  0.19809044    -0.77700
O52         O  0.17165930  0.89253928  0.27054441    -0.79500
O53         O  0.12791070  0.74133861  0.25281403    -0.82200
C54         C  0.22921912  0.78191193  0.17285333     0.98500
C55         C  0.28633492  0.84197958  0.24352245     1.06000
O56         O  0.19001612  0.80436363  0.25556280    -1.11200
O57         O  0.17384830  0.76312112  0.32893639    -0.73700
O58         O  0.24174660  0.76670212  0.31216845    -0.77100
O59         O  0.22484317  0.82136711  0.17989252    -0.77800
C60         C  0.21335800  0.76068368  0.33714291     0.97400
O61         O  0.18963633  0.71114315  0.26192174    -0.75800
O62         O  0.14593759  0.84873357  0.31546142    -0.81000
C63         C  0.10530908  0.84342915  0.21200017     1.00100
C64         C  0.15478905  0.88541823  0.30347280     1.06000
O65         O  0.14157705  0.85123375  0.19884692    -0.76600
C66         C  0.15226035  0.71031276  0.24862740     1.04300
Fe67       Fe  0.98404694  0.98226153  0.13336299     1.65800
Fe68       Fe  0.94993175  0.88854415  0.10347368     1.73200
Fe69       Fe  0.88907340  0.94756210  0.16182363     1.54400
O70         O  0.92328967  0.97444098  0.20825049    -0.80400
O71         O  0.89581201  0.89578575  0.07256361    -0.78700
O72         O  0.99095493  0.97395880  0.19003049    -0.82900
O73         O  0.94249817  0.03231167  0.14418819    -0.77700
O74         O  0.89347400  0.89104016  0.18935288    -0.79500
O75         O  0.98155939  0.92323508  0.05922255    -0.82200
C76         C  0.90258372  0.03580259  0.14454322     0.98500
C77         C  0.96278040  0.97887935  0.21524310     1.06000
O78         O  0.94016928  0.93947574  0.13256900    -1.11200
O79         O  0.00303803  0.87724900  0.13530808    -0.73700
O80         O  0.03336305  0.93889207  0.12620553    -0.77100
O81         O  0.87891537  0.00490710  0.13744691    -0.77800
C82         C  0.03413034  0.90153245  0.13947926     0.97400
O83         O  0.97784248  0.99107710  0.07595028    -0.75800
O84         O  0.91868878  0.84918685  0.14334035    -0.81000
C85         C  0.85911550  0.90441859  0.08464813     1.00100
C86         C  0.90098457  0.85479582  0.17602986     1.06000
O87         O  0.85198809  0.92107401  0.11766482    -0.76600
C88         C  0.98399161  0.96270960  0.05100310     1.04300
Fe89       Fe  0.76305091  0.23451982  0.25828457     1.65800
Fe90       Fe  0.85662293  0.19997250  0.22806931     1.73200
Fe91       Fe  0.79753829  0.13948354  0.28665360     1.54400
O92         O  0.77085544  0.17376894  0.33311738    -0.80400
O93         O  0.84921823  0.14575274  0.19729626    -0.78700
O94         O  0.77163618  0.24140715  0.31494385    -0.82900
O95         O  0.71287431  0.19314293  0.26931070    -0.77700
O96         O  0.85412330  0.14375014  0.31409015    -0.79500
O97         O  0.82172468  0.23150059  0.18379646    -0.82200
C98         C  0.70933141  0.15325509  0.26953587     0.98500
C99         C  0.76660673  0.21324008  0.34015121     1.06000
O100        O  0.80572645  0.19049097  0.25733726    -1.11200
O101        O  0.86820740  0.25307242  0.25979599    -0.73700
O102        O  0.80660003  0.28360230  0.25094059    -0.77100
O103        O  0.74017553  0.12961963  0.26221570    -0.77800
C104        C  0.84399137  0.28416169  0.26420092     0.97400
O105        O  0.75389997  0.22840894  0.20088980    -0.75800
O106        O  0.89604277  0.16878894  0.26800937    -0.81000
C107        C  0.84042348  0.10913851  0.20949503     1.00100
C108        C  0.89039767  0.15117308  0.30075306     1.06000
O109        O  0.82380340  0.10221519  0.24256319    -0.76600
C110        C  0.78217553  0.23418132  0.17576134     1.04300
Fe111      Fe  0.23317102  0.26026747  0.25844483     1.65800
Fe112      Fe  0.13936018  0.29443566  0.22841723     1.73200
Fe113      Fe  0.19839853  0.35517020  0.28682147     1.54400
O114        O  0.22548325  0.32108739  0.33324359    -0.80400
O115        O  0.14664506  0.34859171  0.19750468    -0.78700
O116        O  0.22491829  0.25343750  0.31514002    -0.82900
O117        O  0.28318217  0.30189382  0.26923058    -0.77700
O118        O  0.14199884  0.35062579  0.31444167    -0.79500
O119        O  0.17408438  0.26287542  0.18418381    -0.82200
C120        C  0.28652422  0.34179435  0.26942394     0.98500
C121        C  0.22990334  0.28164219  0.34031069     1.06000
O122        O  0.19030976  0.30409640  0.25758693    -1.11200
O123        O  0.12807259  0.24127005  0.26016776    -0.73700
O124        O  0.18981394  0.21095852  0.25130928    -0.77100
O125        O  0.25554875  0.36529194  0.26217144    -0.77800
C126        C  0.15238439  0.21020377  0.26443590     0.97400
O127        O  0.24198328  0.26634216  0.20102110    -0.75800
O128        O  0.10000650  0.32567850  0.26834629    -0.81000
C129        C  0.15529491  0.38525397  0.20964893     1.00100
C130        C  0.10570326  0.34328056  0.30109137     1.06000
O131        O  0.17176802  0.39228647  0.24277061    -0.76600
C132        C  0.21358437  0.26036850  0.17602000     1.04300
Fe133      Fe  0.01169365  0.51120220  0.13320645     1.65800
Fe134      Fe  0.04496670  0.60539674  0.10359768     1.73200
Fe135      Fe  0.10669379  0.54640985  0.16140235     1.54400
O136        O  0.07299075  0.51926089  0.20796812    -0.80400
O137        O  0.09907484  0.59898110  0.07251351    -0.78700
O138        O  0.00523626  0.51906796  0.18991369    -0.82900
O139        O  0.05360141  0.46137427  0.14358286    -0.77700
O140        O  0.10226432  0.60280647  0.18908477    -0.79500
O141        O  0.01351232  0.57069884  0.05922386    -0.82200
C142        C  0.09352394  0.45813023  0.14393823     0.98500
C143        C  0.03357742  0.51446596  0.21505746     1.06000
O144        O  0.05530130  0.55432116  0.13240568    -1.11200
O145        O  0.99187726  0.61602756  0.13558278    -0.73700
O146        O  0.96191225  0.55418938  0.12660670    -0.77100
O147        O  0.11700865  0.48917764  0.13690201    -0.77800
C148        C  0.96096947  0.59154332  0.13986769     0.97400
O149        O  0.01747025  0.50278334  0.07573291    -0.75800
O150        O  0.07594371  0.64476949  0.14362306    -0.81000
C151        C  0.13588450  0.59019561  0.08428049     1.00100
C152        C  0.09413778  0.63907146  0.17609589     1.06000
O153        O  0.14330801  0.57319140  0.11710906    -0.76600
C154        C  0.01116338  0.53125058  0.05089243     1.04300
Fe155      Fe  0.98509764  0.48213315  0.37973730     1.65800
Fe156      Fe  0.95064860  0.38859149  0.40996752     1.73200
Fe157      Fe  0.89012229  0.44749731  0.35124060     1.54400
O158        O  0.88011273  0.50483275  0.37550396    -0.80400
O159        O  0.91952546  0.34909227  0.37008114    -0.78700
O160        O  0.94364003  0.53220195  0.36845734    -0.82900
O161        O  0.99216178  0.47342986  0.32316053    -0.77700
O162        O  0.85279685  0.42133137  0.39531760    -0.79500
O163        O  0.00385138  0.37709391  0.37832886    -0.82200
C164        C  0.96402171  0.47820860  0.29786315     0.98500
C165        C  0.90371848  0.53567741  0.36814659     1.06000
O166        O  0.94111834  0.43941753  0.38064088    -1.11200
O167        O  0.98205882  0.42354357  0.45420274    -0.73700
O168        O  0.97872249  0.49132407  0.43708132    -0.77100
O169        O  0.92451261  0.47401988  0.30481725    -0.77800
C170        C  0.98450121  0.46306731  0.46223497     0.97400
O171        O  0.03429212  0.43868817  0.38728221    -0.75800
O172        O  0.89637898  0.39601792  0.44064798    -0.81000
C173        C  0.90192705  0.35472685  0.33731529     1.00100
C174        C  0.85974630  0.40482412  0.42843487     1.06000
O175        O  0.89451103  0.39096458  0.32393788    -0.76600
C176        C  0.03494794  0.40133716  0.37399958     1.04300
Fe177      Fe  0.26212531  0.73419948  0.00815059     1.65800
Fe178      Fe  0.35627932  0.69979339  0.47844207     1.73200
Fe179      Fe  0.29612317  0.63884937  0.03621340     1.54400
O180        O  0.26925853  0.67294045  0.08268941    -0.80400
O181        O  0.34923006  0.64561674  0.44752064    -0.78700
O182        O  0.27047011  0.74069665  0.06485300    -0.82900
O183        O  0.21177833  0.69292924  0.01886494    -0.77700
O184        O  0.35255680  0.64264179  0.06401867    -0.79500
O185        O  0.32155457  0.73129087  0.43409110    -0.82200
C186        C  0.20815496  0.65305557  0.01890058     0.98500
C187        C  0.26518174  0.71239087  0.08989391     1.06000
O188        O  0.30470401  0.69007488  0.00726146    -1.11200
O189        O  0.36725851  0.75273084  0.01019126    -0.73700
O190        O  0.30572010  0.78334690  0.00115806    -0.77100
O191        O  0.23892423  0.62943506  0.01131968    -0.77800
C192        C  0.34313677  0.78394264  0.01436208     0.97400
O193        O  0.25363867  0.72788223  0.45085425    -0.75800
O194        O  0.39479850  0.66832162  0.01846093    -0.81000
C195        C  0.34011330  0.60895485  0.45940442     1.00100
C196        C  0.38891678  0.65037322  0.05100917     1.06000
O197        O  0.32320005  0.60183665  0.49230819    -0.76600
C198        C  0.28204686  0.73381727  0.42587966     1.04300
Fe199      Fe  0.73332866  0.26141578  0.50475239     1.65800
Fe200      Fe  0.63872803  0.29510724  0.03463635     1.73200
Fe201      Fe  0.69831974  0.35630947  0.47636779     1.54400
O202        O  0.75564511  0.36655799  0.50079153    -0.80400
O203        O  0.59993437  0.32616570  0.49464482    -0.78700
O204        O  0.78259407  0.30248227  0.99377836    -0.82900
O205        O  0.72508575  0.25463515  0.44805588    -0.77700
O206        O  0.67141130  0.39307724  0.02041345    -0.79500
O207        O  0.62744541  0.24194566  0.00292712    -0.82200
C208        C  0.72988329  0.28285462  0.42285322     0.98500
C209        C  0.78661825  0.34299563  0.49371557     1.06000
O210        O  0.68968551  0.30486188  0.00551704    -1.11200
O211        O  0.67357877  0.26372122  0.07902768    -0.73700
O212        O  0.74143814  0.26712393  0.06212315    -0.77100
O213        O  0.72529076  0.32229230  0.42987906    -0.77800
C214        C  0.71310958  0.26118613  0.08716935     0.97400
O215        O  0.69017705  0.21191377  0.51182623    -0.75800
O216        O  0.64580457  0.34931364  0.06541849    -0.81000
C217        C  0.60555110  0.34407470  0.46204359     1.00100
C218        C  0.65460619  0.38597987  0.05337410     1.06000
O219        O  0.64180266  0.35185442  0.44883174    -0.76600
C220        C  0.65175697  0.21091139  0.99865955     1.04300
Fe221      Fe  0.48391265  0.48254926  0.38323059     1.65800
Fe222      Fe  0.45000693  0.38864443  0.35351553     1.73200
Fe223      Fe  0.38900523  0.44764141  0.41175750     1.54400
O224        O  0.42319444  0.47452253  0.45819348    -0.80400
O225        O  0.39580528  0.39561702  0.32263840    -0.78700
O226        O  0.49085682  0.47442172  0.43992278    -0.82900
O227        O  0.44228325  0.53251832  0.39398107    -0.77700
O228        O  0.39342039  0.39114975  0.43931884    -0.79500
O229        O  0.48141857  0.42336651  0.30914803    -0.82200
C230        C  0.40236823  0.53590414  0.39436113     0.98500
C231        C  0.46267296  0.47910453  0.46517111     1.06000
O232        O  0.44013313  0.43962015  0.38252820    -1.11200
O233        O  0.50320306  0.37760174  0.38532108    -0.73700
O234        O  0.53335120  0.43931507  0.37614448    -0.77100
O235        O  0.37877341  0.50494076  0.38733036    -0.77800
C236        C  0.53421952  0.40198621  0.38948132     0.97400
O237        O  0.47765990  0.49123259  0.32580049    -0.75800
O238        O  0.41897856  0.34924741  0.39350672    -0.81000
C239        C  0.35910371  0.40438233  0.33463718     1.00100
C240        C  0.40115407  0.35489416  0.42613749     1.06000
O241        O  0.35195395  0.42113589  0.36760336    -0.76600
C242        C  0.48377552  0.46283488  0.30087521     1.04300
Fe243      Fe  0.26281918  0.23347590  0.50498251     1.65800
Fe244      Fe  0.35612021  0.19961647  0.03457158     1.73200
Fe245      Fe  0.29775740  0.13855495  0.47677434     1.54400
O246        O  0.24034742  0.12839905  0.50101014    -0.80400
O247        O  0.39618827  0.16848424  0.49536590    -0.78700
O248        O  0.21200581  0.19269853  0.99402729    -0.82900
O249        O  0.27129566  0.24028377  0.44833420    -0.77700
O250        O  0.32284492  0.10172252  0.02088630    -0.79500
O251        O  0.36732152  0.25268082  0.00266534    -0.82200
C252        C  0.26650633  0.21207543  0.42313407     0.98500
C253        C  0.20942057  0.15197146  0.49374315     1.06000
O254        O  0.30500446  0.18994882  0.00563608    -1.11200
O255        O  0.32159391  0.23121349  0.07893731    -0.73700
O256        O  0.25363158  0.22777847  0.06227891    -0.77100
O257        O  0.27097498  0.17262848  0.43019642    -0.77800
C258        C  0.28211463  0.23370465  0.08721539     0.97400
O259        O  0.30606872  0.28287830  0.51223220    -0.75800
O260        O  0.34904504  0.14552040  0.06558055    -0.81000
C261        C  0.39061737  0.15058566  0.46274598     1.00100
C262        C  0.33986220  0.10886155  0.05376001     1.06000
O263        O  0.35436878  0.14290810  0.44942956    -0.76600
C264        C  0.34304883  0.28378710  0.99856728     1.04300
Fe265      Fe  0.51195097  0.01206844  0.38349537     1.65800
Fe266      Fe  0.54575954  0.10587682  0.35352432     1.73200
Fe267      Fe  0.60714272  0.04681647  0.41153967     1.54400
O268        O  0.57331021  0.01984558  0.45817246    -0.80400
O269        O  0.59981843  0.09897618  0.32241131    -0.78700
O270        O  0.50554846  0.02030733  0.44020559    -0.82900
O271        O  0.55358065  0.96208107  0.39401169    -0.77700
O272        O  0.60292206  0.10332058  0.43910257    -0.79500
O273        O  0.51403268  0.07113051  0.30928429    -0.82200
C274        C  0.59348216  0.95861620  0.39418202     0.98500
C275        C  0.53386449  0.01534382  0.46531392     1.06000
O276        O  0.55582377  0.05488932  0.38249864    -1.11200
O277        O  0.49277903  0.11699044  0.38564178    -0.73700
O278        O  0.46249615  0.05532923  0.37668729    -0.77100
O279        O  0.61712210  0.98952337  0.38705710    -0.77800
C280        C  0.46176891  0.09264739  0.39002048     0.97400
O281        O  0.51761126  0.00326693  0.32602878    -0.75800
O282        O  0.57703476  0.14521986  0.39337244    -0.81000
C283        C  0.63659110  0.09021567  0.33430674     1.00100
C284        C  0.59503602  0.13957472  0.42594360     1.06000
O285        O  0.64390000  0.07336137  0.36722156    -0.76600
C286        C  0.51143196  0.03165343  0.30108134     1.04300
Fe287      Fe  0.73259983  0.76060040  0.00845670     1.65800
Fe288      Fe  0.63917204  0.79471159  0.47830452     1.73200
Fe289      Fe  0.69840882  0.85576971  0.03678725     1.54400
O290        O  0.72520040  0.82143791  0.08323509    -0.80400
O291        O  0.64643997  0.84892173  0.44748676    -0.78700
O292        O  0.72421668  0.75378214  0.06510084    -0.82900
O293        O  0.78287657  0.80188319  0.01937837    -0.77700
O294        O  0.64189796  0.85184464  0.06440153    -0.79500
O295        O  0.67390921  0.76321282  0.43401082    -0.82200
C296        C  0.78645074  0.84175975  0.01952990     0.98500
C297        C  0.72940229  0.78194939  0.09027126     1.06000
O298        O  0.68996845  0.80467084  0.00764028    -1.11200
O299        O  0.62746316  0.74200138  0.01027741    -0.73700
O300        O  0.68901547  0.71145446  0.00124882    -0.77100
O301        O  0.75563769  0.86539658  0.01211197    -0.77800
C302        C  0.65161388  0.71080873  0.01446079     0.97400
O303        O  0.74179718  0.76667316  0.45083960    -0.75800
O304        O  0.59980234  0.82636452  0.01860940    -0.81000
C305        C  0.65510271  0.88557248  0.45965865     1.00100
C306        C  0.60557123  0.84419309  0.05123473     1.06000
O307        O  0.67210763  0.89301604  0.99267169    -0.76600
C308        C  0.71340784  0.76063892  0.42584480     1.04300
Fe309      Fe  0.76238167  0.73337392  0.25480069     1.65800
Fe310      Fe  0.85620194  0.69923920  0.28459744     1.73200
Fe311      Fe  0.79691116  0.63831296  0.22641675     1.54400
O312        O  0.73947896  0.62841580  0.25071053    -0.80400
O313        O  0.89547868  0.66801631  0.24467466    -0.78700
O314        O  0.71220876  0.69198917  0.24387593    -0.82900
O315        O  0.77071327  0.74021387  0.19815141    -0.77700
O316        O  0.82328522  0.60127372  0.27067930    -0.79500
O317        O  0.86739558  0.75235001  0.25270778    -0.82200
C318        C  0.76590154  0.71206746  0.17289538     0.98500
C319        C  0.70864020  0.65211581  0.24347730     1.06000
O320        O  0.80515003  0.68943869  0.25559878    -1.11200
O321        O  0.82151772  0.73079249  0.32893220    -0.73700
O322        O  0.75358617  0.72720928  0.31222633    -0.77100
O323        O  0.77026062  0.67258348  0.17987888    -0.77800
C324        C  0.78202245  0.73328966  0.33717465     0.97400
O325        O  0.80578479  0.78266307  0.26199148    -0.75800
O326        O  0.84919142  0.64510387  0.31551825    -0.81000
C327        C  0.88976707  0.64995393  0.21215897     1.00100
C328        C  0.84031274  0.60842240  0.30355820     1.06000
O329        O  0.85347491  0.64228529  0.19895449    -0.76600
C330        C  0.84310790  0.78344990  0.24862035     1.04300
Fe331      Fe  0.51031603  0.51187593  0.12972178     1.65800
Fe332      Fe  0.54439008  0.60576036  0.15952808     1.73200
Fe333      Fe  0.60520675  0.54680788  0.10113309     1.54400
O334        O  0.61540138  0.48958528  0.12565713    -0.80400
O335        O  0.57529569  0.64516741  0.11942790    -0.78700
O336        O  0.55196089  0.46193971  0.11880727    -0.82900
O337        O  0.50326898  0.52010110  0.07303840    -0.77700
O338        O  0.64242164  0.57330658  0.14517647    -0.79500
O339        O  0.49102678  0.61680411  0.12793052    -0.82200
C340        C  0.53143882  0.51535967  0.04778507     0.98500
C341        C  0.59188467  0.45862450  0.11845003     1.06000
O342        O  0.55412461  0.55482352  0.13043098    -1.11200
O343        O  0.51315141  0.57094366  0.20393826    -0.73700
O344        O  0.51662740  0.50308769  0.18714006    -0.77100
O345        O  0.57092428  0.51989750  0.05475656    -0.77800
C346        C  0.51067776  0.53145876  0.21213099     0.97400
O347        O  0.46086880  0.55506107  0.13696947    -0.75800
O348        O  0.59877057  0.59886158  0.19026756    -0.81000
C349        C  0.59314007  0.63954543  0.08679276     1.00100
C350        C  0.63543303  0.59006775  0.17816528     1.06000
O351        O  0.60079499  0.60329452  0.07355331    -0.76600
C352        C  0.45998747  0.59243891  0.12375812     1.04300
C353        C  0.66949037  0.63308955  0.22880523    -0.15100
C354        C  0.67168226  0.60161249  0.20261480    -0.30300
H355        H  0.64001788  0.64976950  0.23336813     0.13900
H356        H  0.70212622  0.58809050  0.19530490     0.14500
C357        C  0.63598182  0.67334657  0.03545422    -0.15100
C358        C  0.60628293  0.67640371  0.06342407    -0.30300
H359        H  0.65149614  0.64341022  0.03012413     0.13900
H360        H  0.59321312  0.70700415  0.07075108     0.14500
C361        C  0.76838496  0.74463589  0.37672660    -0.15100
C362        C  0.72708688  0.74928542  0.38630996    -0.30300
H363        H  0.79276057  0.74948540  0.39827998     0.13900
H364        H  0.70271624  0.74444375  0.36475041     0.14500
C365        C  0.74241055  0.76744192  0.12846832    -0.15100
C366        C  0.75309844  0.72660369  0.13464575    -0.30300
H367        H  0.74414177  0.79062658  0.15145226     0.13900
H368        H  0.75140178  0.70343045  0.11164970     0.14500
C369        C  0.64381753  0.92175655  0.43512491    -0.15100
C370        C  0.61262266  0.91950435  0.40864413    -0.30300
H371        H  0.65715690  0.95221199  0.44265272     0.13900
H372        H  0.59606828  0.89001098  0.40385335     0.14500
C373        C  0.42751268  0.13748482  0.43941942    -0.15100
C374        C  0.42439223  0.10797496  0.41129837    -0.30300
H375        H  0.45813451  0.15055518  0.44676207     0.13900
H376        H  0.39444152  0.09245785  0.40594234     0.14500
C377        C  0.49497538  0.47649009  0.26130436    -0.15100
C378        C  0.49952922  0.51776894  0.25170265    -0.30300
H379        H  0.49977431  0.45214688  0.23974895     0.13900
H380        H  0.49474529  0.54210725  0.27326569     0.14500
C381        C  0.47711354  0.49197311  0.50342524    -0.15100
C382        C  0.51699590  0.50250540  0.00952566    -0.30300
H383        H  0.45290386  0.49347338  0.02613810     0.13900
H384        H  0.54025426  0.50085677  0.98659497     0.14500
C385        C  0.38820169  0.31806154  0.44960628    -0.15100
C386        C  0.35876073  0.32115039  0.47778884    -0.30300
H387        H  0.40126864  0.28746502  0.44225729     0.13900
H388        H  0.34322475  0.35106441  0.48316926     0.14500
C389        C  0.57171379  0.38669514  0.41061462    -0.15100
C390        C  0.56867975  0.35708682  0.43865379    -0.30300
H391        H  0.60161131  0.40231798  0.40529013     0.13900
H392        H  0.53809570  0.34391639  0.44595366     0.14500
C393        C  0.64288944  0.42207415  0.07785462    -0.15100
C394        C  0.61119701  0.41965806  0.10382739    -0.30300
H395        H  0.65638292  0.45256336  0.07068985     0.13900
H396        H  0.59457394  0.39012845  0.10821316     0.14500
C397        C  0.63752213  0.17347376  0.47747892    -0.15100
C398        C  0.60797339  0.17644075  0.44935419    -0.30300
H399        H  0.65316690  0.14361282  0.48288173     0.13900
H400        H  0.59478203  0.20699085  0.44199301     0.14500
C401        C  0.35152828  0.57283089  0.43482828    -0.15100
C402        C  0.38318134  0.57502420  0.40880951    -0.30300
H403        H  0.33787294  0.54242181  0.44202349     0.13900
H404        H  0.39994843  0.60446165  0.40436505     0.14500
C405        C  0.42564495  0.63731363  0.07455737    -0.15100
C406        C  0.42249342  0.60778861  0.10265089    -0.30300
H407        H  0.45628193  0.65038790  0.06729675     0.13900
H408        H  0.39255667  0.59223820  0.10796795     0.14500
C409        C  0.88445414  0.57468942  0.35350170    -0.15100
C410        C  0.85223474  0.57236381  0.32802698    -0.30300
H411        H  0.90135345  0.60412977  0.35749506     0.13900
H412        H  0.83840712  0.54193600  0.32119139     0.14500
C413        C  0.82349238  0.39349334  0.45288862    -0.15100
C414        C  0.82572565  0.36218754  0.47925454    -0.30300
H415        H  0.79302947  0.40687792  0.44538484     0.13900
H416        H  0.85523845  0.34562704  0.48400936     0.14500
C417        C  0.92350363  0.60682179  0.16103503    -0.15100
C418        C  0.92657639  0.63667852  0.18884876    -0.30300
H419        H  0.89361306  0.59111414  0.15586320     0.13900
H420        H  0.95716867  0.64994196  0.19600332     0.14500
C421        C  0.99978161  0.51768035  0.01134139    -0.15100
C422        C  0.99542914  0.47691711  0.50180768    -0.30300
H423        H  0.99484174  0.54206212  0.98982802     0.13900
H424        H  0.00022494  0.45263290  0.52344027     0.14500
C425        C  0.01932530  0.50153711  0.25333232    -0.15100
C426        C  0.97851633  0.49078598  0.25959351    -0.30300
H427        H  0.04258866  0.50003145  0.27629726     0.13900
H428        H  0.95525518  0.49232182  0.23662896     0.12900
C429        C  0.16920780  0.63386225  0.03375389    -0.15100
C430        C  0.17178552  0.60205808  0.05960440    -0.30300
H431        H  0.13967260  0.65058818  0.02964816     0.13900
H432        H  0.20233087  0.58847079  0.06649107     0.14500
C433        C  0.32550239  0.36113145  0.28402211    -0.15100
C434        C  0.32302395  0.39269669  0.31009437    -0.30300
H435        H  0.35507655  0.34459004  0.27958638     0.13900
H436        H  0.29248941  0.40608702  0.31729374     0.14500
C437        C  0.22724223  0.24919762  0.13646365    -0.15100
C438        C  0.26853911  0.24483647  0.12681154    -0.30300
H439        H  0.20285304  0.24429312  0.11493322     0.13900
H440        H  0.29293735  0.24973878  0.14833408     0.14500
C441        C  0.25361552  0.22646236  0.38485828    -0.15100
C442        C  0.24291529  0.26726665  0.37855486    -0.30300
H443        H  0.25188809  0.20320282  0.36193784     0.13900
H444        H  0.24465214  0.29053177  0.40147100     0.14500
C445        C  0.07225752  0.38585971  0.35272990    -0.15100
C446        C  0.06892841  0.35647779  0.32451041    -0.30300
H447        H  0.10229767  0.40118861  0.35812187     0.13900
H448        H  0.03821944  0.34363767  0.31713011     0.14500
C449        C  0.11283117  0.41909219  0.15847075    -0.15100
C450        C  0.14388566  0.42144524  0.18510935    -0.30300
H451        H  0.09647939  0.38951278  0.15355042     0.13900
H452        H  0.15702404  0.45195975  0.19272621     0.14500
C453        C  0.67259495  0.10199706  0.30972675    -0.15100
C454        C  0.67025945  0.13406873  0.28413955    -0.30300
H455        H  0.70304936  0.08819729  0.31659367     0.13900
H456        H  0.64081072  0.15096733  0.28010188     0.14500
C457        C  0.76828900  0.24534471  0.13621183    -0.15100
C458        C  0.72693920  0.24999903  0.12673501    -0.30300
H459        H  0.79254892  0.25002741  0.11454599     0.13900
H460        H  0.70267099  0.24529584  0.14839005     0.14500
C461        C  0.75368055  0.22768434  0.37838257    -0.15100
C462        C  0.74289578  0.26847863  0.38461726    -0.30300
H463        H  0.75197929  0.20444386  0.40133340     0.13900
H464        H  0.74456862  0.29171354  0.36165988     0.14500
C465        C  0.85952892  0.32137428  0.28552317    -0.15100
C466        C  0.88878915  0.31796888  0.31387283    -0.30300
H467        H  0.84428151  0.35142952  0.28007181     0.13900
H468        H  0.90154759  0.28725772  0.32130954     0.14500
C469        C  0.82303323  0.89267954  0.06013912    -0.15100
C470        C  0.82546304  0.86093859  0.03423804    -0.30300
H471        H  0.79253143  0.90621874  0.06721725     0.13900
H472        H  0.85498138  0.84424496  0.02996521     0.14500
C473        C  0.85848675  0.82095139  0.22756056    -0.15100
C474        C  0.88792798  0.81791780  0.19937936    -0.30300
H475        H  0.84302587  0.85087988  0.23305444     0.13900
H476        H  0.90091524  0.78731982  0.19191930     0.14500
C477        C  0.85187642  0.07287154  0.18509442    -0.15100
C478        C  0.88347610  0.07496773  0.15900703    -0.30300
H479        H  0.83827469  0.04248207  0.19244056     0.13900
H480        H  0.90022459  0.10439339  0.15444078     0.14500
C481        C  0.13689046  0.67285620  0.22750350    -0.15100
C482        C  0.10710587  0.67587267  0.19957936    -0.30300
H483        H  0.15263364  0.64300494  0.23270815     0.13900
H484        H  0.09377921  0.70641672  0.19240576     0.14500
C485        C  0.22705654  0.74950216  0.37670763    -0.15100
C486        C  0.26836583  0.74500936  0.38631207    -0.30300
H487        H  0.20270720  0.74465796  0.39826086     0.13900
H488        H  0.29271607  0.74984369  0.36475815     0.14500
C489        C  0.24183380  0.76752574  0.13453779    -0.15100
C490        C  0.25224818  0.72667673  0.12815206    -0.30300
H491        H  0.24362118  0.79083667  0.11165173     0.13900
H492        H  0.25039806  0.70334257  0.15101391     0.14500
C493        C  0.07158740  0.88610342  0.16056875    -0.15100
C494        C  0.06848490  0.85645966  0.18856684    -0.30300
H495        H  0.10151141  0.90169182  0.15528466     0.13900
H496        H  0.03787897  0.84331496  0.19582847     0.14500
C497        C  0.13692579  0.17277629  0.28549789    -0.15100
C498        C  0.10753237  0.17595299  0.31369015    -0.30300
H499        H  0.15235581  0.14281667  0.28006992     0.13900
H500        H  0.09459570  0.20659026  0.32109188     0.14500
C501        C  0.17033720  0.13276113  0.47915324    -0.15100
C502        C  0.17261039  0.10113798  0.45311627    -0.30300
H503        H  0.14083580  0.14943026  0.48359640     0.13900
H504        H  0.20307660  0.08761071  0.44589347     0.14500
C505        C  0.99980331  0.01789415  0.50166552    -0.15100
C506        C  0.99530612  0.97640211  0.01147541    -0.30300
H507        H  0.99511804  0.04220678  0.52327084     0.13900
H508        H  0.00021125  0.95208082  0.98991945     0.14500
C509        C  0.97725602  0.99186706  0.25344809    -0.15100
C510        C  0.01812570  0.00245253  0.25969449    -0.30300
H511        H  0.95400754  0.99371973  0.27637409     0.13900
H512        H  0.04138578  0.00057174  0.23678002     0.14500
C513        C  0.92397181  0.10864855  0.35239472    -0.15100
C514        C  0.92722668  0.13804591  0.32418072    -0.30300
H515        H  0.89394320  0.09331648  0.35780585     0.13900
H516        H  0.95791309  0.15090618  0.31677979     0.14500
C517        C  0.14314604  0.92153428  0.32798227    -0.15100
C518        C  0.11144255  0.91925676  0.35395657    -0.30300
H519        H  0.15677964  0.95197278  0.32085865     0.13900
H520        H  0.09466680  0.88980727  0.35830330     0.14500
C521        C  0.35880142  0.82138319  0.03534046    -0.15100
C522        C  0.38837183  0.81827700  0.06344495    -0.30300
H523        H  0.34336020  0.85134591  0.02991655     0.13900
H524        H  0.40134814  0.78765456  0.07086939     0.14500
C525        C  0.49516258  0.97670115  0.25198688    -0.15100
C526        C  0.49990411  0.01797947  0.26155948    -0.30300
H527        H  0.49998552  0.95235621  0.27355647     0.13900
H528        H  0.49507661  0.04232420  0.23999071     0.14500
C529        C  0.47738082  0.99229951  0.00976214    -0.15100
C530        C  0.51953492  0.00224520  0.50355569    -0.30300
H531        H  0.45412255  0.99399077  0.98680439     0.13900
H532        H  0.54150416  0.00117265  0.02643987     0.14500
C533        C  0.38312309  0.07502609  0.10431998    -0.15100
C534        C  0.35136392  0.07277551  0.07837286    -0.30300
H535        H  0.39988680  0.10448012  0.10868649     0.13900
H536        H  0.33769347  0.04235368  0.07125146     0.14500
C537        C  0.32285301  0.89261831  0.20253786    -0.15100
C538        C  0.32531291  0.86121246  0.22880072    -0.30300
H539        H  0.29231004  0.90590479  0.19516392     0.13900
H540        H  0.35490342  0.84474553  0.23341985     0.14500
C541        C  0.56876725  0.85721311  0.07469916    -0.15100
C542        C  0.57186135  0.88671550  0.10282026    -0.30300
H543        H  0.53814451  0.84413940  0.06736049     0.13900
H544        H  0.60179349  0.90225950  0.10819681     0.14500
Fe545      Fe  0.48520114  0.98195296  0.62982310     1.65800
Fe546      Fe  0.45029919  0.88856194  0.65988942     1.73200
Fe547      Fe  0.39004879  0.94788350  0.60131555     1.54400
O548        O  0.38044728  0.00513731  0.62590275    -0.80400
O549        O  0.41880957  0.84937808  0.61999443    -0.78700
O550        O  0.44403983  0.03225816  0.61864344    -0.82900
O551        O  0.49228403  0.97340123  0.57320373    -0.77700
O552        O  0.35262716  0.92169986  0.64537179    -0.79500
O553        O  0.50338067  0.87682210  0.62816472    -0.82200
C554        C  0.46414532  0.97858987  0.54796609     0.98500
C555        C  0.40414137  0.03590355  0.61851371     1.06000
O556        O  0.44103029  0.93944922  0.63061875    -1.11200
O557        O  0.48205551  0.92320465  0.70412695    -0.73700
O558        O  0.47876303  0.99101508  0.68714883    -0.77100
O559        O  0.42460831  0.97450211  0.55494146    -0.77800
C560        C  0.48459423  0.96270237  0.71223140     0.97400
O561        O  0.53410661  0.93823159  0.63740121    -0.75800
O562        O  0.39616578  0.89629197  0.69068852    -0.81000
C563        C  0.40122848  0.85507131  0.58722620     1.00100
C564        C  0.35954470  0.90513315  0.67847951     1.06000
O565        O  0.39402477  0.89135260  0.57380635    -0.76600
C566        C  0.53462212  0.90092410  0.62403038     1.04300
Fe567      Fe  0.01086705  0.01190218  0.87989251     1.65800
Fe568      Fe  0.04469518  0.10580415  0.90989982     1.73200
Fe569      Fe  0.10577758  0.04695797  0.85156865     1.54400
O570        O  0.11608152  0.98961035  0.87586287    -0.80400
O571        O  0.07560210  0.14531653  0.86993083    -0.78700
O572        O  0.05259263  0.96200890  0.86908021    -0.82900
O573        O  0.00405700  0.02014958  0.82316874    -0.77700
O574        O  0.14278190  0.07349713  0.89573446    -0.79500
O575        O  0.99147104  0.11683781  0.87817802    -0.82200
C576        C  0.03232048  0.01546560  0.79798586     0.98500
C577        C  0.09251593  0.95867057  0.86864575     1.06000
O578        O  0.05461838  0.05487060  0.88079014    -1.11200
O579        O  0.01339247  0.07092282  0.95420610    -0.73700
O580        O  0.01696681  0.00309157  0.93734079    -0.77100
O581        O  0.07176075  0.02008341  0.80506252    -0.77800
C582        C  0.01096013  0.03142942  0.96235506     0.97400
O583        O  0.96134792  0.05504149  0.88697458    -0.75800
O584        O  0.09895607  0.09896470  0.94073625    -0.81000
C585        C  0.09341552  0.13967235  0.83729577     1.00100
C586        C  0.13565877  0.09028103  0.92868944     1.06000
O587        O  0.10117791  0.10343320  0.82410955    -0.76600
C588        C  0.96049956  0.09244530  0.87382072     1.04300
Fe589      Fe  0.23310943  0.76120330  0.75461330     1.65800
Fe590      Fe  0.13910963  0.79498759  0.78426612     1.73200
Fe591      Fe  0.19810692  0.85599347  0.72597016     1.54400
O592        O  0.25535528  0.86638111  0.75046308    -0.80400
O593        O  0.09973312  0.82585081  0.74417072    -0.78700
O594        O  0.28302395  0.80295180  0.74380944    -0.82900
O595        O  0.22489001  0.75425023  0.69795440    -0.77700
O596        O  0.17141562  0.89306559  0.77000369    -0.79500
O597        O  0.12815925  0.74168292  0.75259091    -0.82200
C598        C  0.22969441  0.78239058  0.67268975     0.98500
C599        C  0.28636263  0.84285436  0.74343335     1.06000
O600        O  0.19012202  0.80490898  0.75528835    -1.11200
O601        O  0.17387353  0.76372711  0.82869056    -0.73700
O602        O  0.24179963  0.76740813  0.81204394    -0.77100
O603        O  0.22517155  0.82185153  0.67962146    -0.77800
C604        C  0.21336329  0.76131583  0.83695955     0.97400
O605        O  0.18998007  0.71166613  0.76174408    -0.75800
O606        O  0.14590626  0.84929118  0.81504684    -0.81000
C607        C  0.10542262  0.84361442  0.71151748     1.00100
C608        C  0.15463567  0.88597726  0.80298104     1.06000
O609        O  0.14169268  0.85134667  0.69834077    -0.76600
C610        C  0.15258607  0.71068954  0.74850182     1.04300
Fe611      Fe  0.98418350  0.98231555  0.63315804     1.65800
Fe612      Fe  0.94993581  0.88858895  0.60318284     1.73200
Fe613      Fe  0.88920404  0.94760941  0.66162789     1.54400
O614        O  0.92349581  0.97427314  0.70806552    -0.80400
O615        O  0.89569647  0.89578529  0.57242429    -0.78700
O616        O  0.99118079  0.97393831  0.68985651    -0.82900
O617        O  0.94269981  0.03236501  0.64418847    -0.77700
O618        O  0.89348733  0.89107361  0.68906389    -0.79500
O619        O  0.98131103  0.92339788  0.55886151    -0.82200
C620        C  0.90278810  0.03584161  0.64459294     0.98500
C621        C  0.96297364  0.97872199  0.71508133     1.06000
O622        O  0.94028256  0.93950289  0.63235291    -1.11200
O623        O  0.00319756  0.87730554  0.63479175    -0.73700
O624        O  0.03347832  0.93899146  0.62578358    -0.77100
O625        O  0.87914084  0.00498573  0.63733474    -0.77800
C626        C  0.03428298  0.90159886  0.63896051     0.97400
O627        O  0.97786810  0.99122938  0.57574434    -0.75800
O628        O  0.91887378  0.84916244  0.64317322    -0.81000
C629        C  0.85904347  0.90461489  0.58449363     1.00100
C630        C  0.90105773  0.85481924  0.67581585     1.06000
O631        O  0.85199941  0.92131614  0.61749520    -0.76600
C632        C  0.98381687  0.96289064  0.55071844     1.04300
Fe633      Fe  0.76263198  0.23414761  0.75814501     1.65800
Fe634      Fe  0.85636713  0.19966614  0.72839157     1.73200
Fe635      Fe  0.79690259  0.13906024  0.78661949     1.54400
O636        O  0.77006401  0.17332156  0.83300660    -0.80400
O637        O  0.84913479  0.14548356  0.69754732    -0.78700
O638        O  0.77087109  0.24098975  0.81487025    -0.82900
O639        O  0.71237157  0.19282985  0.76896765    -0.77700
O640        O  0.85334499  0.14319611  0.81428708    -0.79500
O641        O  0.82182219  0.23129004  0.68401041    -0.82200
C642        C  0.70876982  0.15295429  0.76926520     0.98500
C643        C  0.76578189  0.21278681  0.84005042     1.06000
O644        O  0.80530222  0.19012815  0.75740667    -1.11200
O645        O  0.86775889  0.25281659  0.76011201    -0.73700
O646        O  0.80615849  0.28328145  0.75093265    -0.77100
O647        O  0.73959483  0.12926235  0.76201191    -0.77800
C648        C  0.84354775  0.28397601  0.76417943     0.97400
O649        O  0.75389360  0.22800769  0.70072003    -0.75800
O650        O  0.89549674  0.16840947  0.76846100    -0.81000
C651        C  0.84026483  0.10884423  0.70963300     1.00100
C652        C  0.88967440  0.15065716  0.80110726     1.06000
O653        O  0.82338494  0.10184732  0.74258158    -0.76600
C654        C  0.78233486  0.23396476  0.67578172     1.04300
Fe655      Fe  0.23216840  0.26019112  0.75835720     1.65800
Fe656      Fe  0.13855766  0.29455153  0.72806446     1.73200
Fe657      Fe  0.19786834  0.35542867  0.78616904     1.54400
O658        O  0.22460923  0.32136742  0.83282054    -0.80400
O659        O  0.14578621  0.34861309  0.69701302    -0.78700
O660        O  0.22352935  0.25361590  0.81502712    -0.82900
O661        O  0.28235996  0.30152932  0.76927852    -0.77700
O662        O  0.14134623  0.35150443  0.81369631    -0.79500
O663        O  0.17341982  0.26291087  0.68388778    -0.82200
C664        C  0.28593556  0.34140005  0.76917584     0.98500
C665        C  0.22874269  0.28191771  0.84007269     1.06000
O666        O  0.18951590  0.30422593  0.75720665    -1.11200
O667        O  0.12711254  0.24155216  0.76000936    -0.73700
O668        O  0.18868918  0.21104962  0.75109771    -0.77100
O669        O  0.25514037  0.36498507  0.76154770    -0.77800
C670        C  0.15133289  0.21045296  0.76437264     0.97400
O671        O  0.24127233  0.26613589  0.70098393    -0.75800
O672        O  0.09926472  0.32585618  0.76797183    -0.81000
C673        C  0.15480477  0.38528285  0.70890645     1.00100
C674        C  0.10502731  0.34378254  0.80055834     1.06000
O675        O  0.17159122  0.39242190  0.74187387    -0.76600
C676        C  0.21296906  0.26028973  0.67586715     1.04300
Fe677      Fe  0.01116121  0.51215755  0.63332345     1.65800
Fe678      Fe  0.04534233  0.60588433  0.60347484     1.73200
Fe679      Fe  0.10648020  0.54646279  0.66138561     1.54400
O680        O  0.07253668  0.51945190  0.70792406    -0.80400
O681        O  0.09937604  0.59878179  0.57239322    -0.78700
O682        O  0.00475725  0.52030515  0.69001371    -0.82900
O683        O  0.05264061  0.46196215  0.64378962    -0.77700
O684        O  0.10249236  0.60290991  0.68911728    -0.79500
O685        O  0.01357255  0.57137300  0.55914925    -0.82200
C686        C  0.09254300  0.45838645  0.64386667     0.98500
C687        C  0.03307385  0.51514978  0.71508479     1.06000
O688        O  0.05516749  0.55483138  0.63240935    -1.11200
O689        O  0.99234505  0.61719732  0.63548700    -0.73700
O690        O  0.96184741  0.55562250  0.62655429    -0.77100
O691        O  0.11620579  0.48924730  0.63665846    -0.77800
C692        C  0.96122142  0.59298625  0.63979856     0.97400
O693        O  0.01689527  0.50349486  0.57589225    -0.75800
O694        O  0.07672021  0.64497247  0.64344243    -0.81000
C695        C  0.13611905  0.58991753  0.58428027     1.00100
C696        C  0.09469984  0.63921329  0.67600784     1.06000
O697        O  0.14337314  0.57301934  0.61718074    -0.76600
C698        C  0.01097283  0.53191014  0.55092551     1.04300
Fe699      Fe  0.98436946  0.48237500  0.87977099     1.65800
Fe700      Fe  0.94996620  0.38869054  0.90959811     1.73200
Fe701      Fe  0.88938716  0.44783744  0.85108285     1.54400
O702        O  0.87934606  0.50508178  0.87559112    -0.80400
O703        O  0.91882499  0.34944311  0.86962645    -0.78700
O704        O  0.94292116  0.53248997  0.86886757    -0.82900
O705        O  0.99138780  0.47412525  0.82312573    -0.77700
O706        O  0.85208530  0.42133370  0.89507740    -0.79500
O707        O  0.00312052  0.37732785  0.87785229    -0.82200
C708        C  0.96326191  0.47898728  0.79782886     0.98500
C709        C  0.90300985  0.53597491  0.86850855     1.06000
O710        O  0.94039462  0.43965616  0.88047099    -1.11200
O711        O  0.98150429  0.42331283  0.95394397    -0.73700
O712        O  0.97808029  0.49117237  0.93716654    -0.77100
O713        O  0.92374988  0.47469369  0.80475375    -0.77800
C714        C  0.98402741  0.46277814  0.96215102     0.97400
O715        O  0.03357161  0.43888720  0.88699653    -0.75800
O716        O  0.89571519  0.39595261  0.94034699    -0.81000
C717        C  0.90131300  0.35512814  0.83684700     1.00100
C718        C  0.85905635  0.40465452  0.92813242     1.06000
O719        O  0.89384350  0.39139155  0.82352089    -0.76600
C720        C  0.03422107  0.40158507  0.87360425     1.04300
Fe721      Fe  0.26253004  0.73401867  0.50824956     1.65800
Fe722      Fe  0.35580125  0.69963182  0.97834474     1.73200
Fe723      Fe  0.29691189  0.63889172  0.53649749     1.54400
O724        O  0.27020170  0.67308915  0.58300389    -0.80400
O725        O  0.34859914  0.64550809  0.94734217    -0.78700
O726        O  0.27104356  0.74076610  0.56488333    -0.82900
O727        O  0.21234229  0.69264403  0.51918054    -0.77700
O728        O  0.35342894  0.64287661  0.56409975    -0.79500
O729        O  0.32129126  0.73130030  0.93397589    -0.82200
C730        C  0.20878525  0.65276768  0.51931092     0.98500
C731        C  0.26602535  0.71256833  0.59006495     1.06000
O732        O  0.30525020  0.69004947  0.50740723    -1.11200
O733        O  0.36752421  0.75292143  0.51028589    -0.73700
O734        O  0.30592893  0.78328972  0.50102346    -0.77100
O735        O  0.23961319  0.62916553  0.51189123    -0.77800
C736        C  0.34326047  0.78402488  0.51441207     0.97400
O737        O  0.25333979  0.72834609  0.95070792    -0.75800
O738        O  0.39551281  0.66868588  0.51849761    -0.81000
C739        C  0.33946969  0.60884948  0.95921842     1.00100
C740        C  0.38974036  0.65073156  0.55105476     1.06000
O741        O  0.32252361  0.60176174  0.99210770    -0.76600
C742        C  0.28180886  0.73409480  0.92575119     1.04300
Fe743      Fe  0.73251685  0.26097974  0.00469771     1.65800
Fe744      Fe  0.63938658  0.29513918  0.53459125     1.73200
Fe745      Fe  0.69778952  0.35597275  0.97626247     1.54400
O746        O  0.75518579  0.36599358  0.00062634    -0.80400
O747        O  0.59930234  0.32610378  0.99459577    -0.78700
O748        O  0.78324310  0.30310745  0.49402595    -0.82900
O749        O  0.72416755  0.25412446  0.94800537    -0.77700
O750        O  0.67173512  0.39322672  0.52054537    -0.79500
O751        O  0.62836230  0.24196149  0.50276185    -0.82200
C752        C  0.72902004  0.28232445  0.92278603     0.98500
C753        C  0.78606476  0.34236979  0.99338649     1.06000
O754        O  0.69035537  0.30513783  0.50556370    -1.11200
O755        O  0.67422161  0.26372853  0.57890163    -0.73700
O756        O  0.74211353  0.26748884  0.56218150    -0.77100
O757        O  0.72455590  0.32177761  0.92979911    -0.77800
C758        C  0.71372601  0.26133159  0.58712340     0.97400
O759        O  0.68915318  0.21166988  0.01191035    -0.75800
O760        O  0.64625734  0.34931583  0.56550093    -0.81000
C761        C  0.60493214  0.34395096  0.96195872     1.00100
C762        C  0.65495396  0.38603080  0.55349957     1.06000
O763        O  0.64120068  0.35172342  0.94876977    -0.76600
C764        C  0.65279332  0.21099239  0.49856466     1.04300
Fe765      Fe  0.48320427  0.48243744  0.88300093     1.65800
Fe766      Fe  0.44938948  0.38857482  0.85310714     1.73200
Fe767      Fe  0.38829096  0.44749410  0.91138602     1.54400
O768        O  0.42231878  0.47445506  0.95786921    -0.80400
O769        O  0.39520147  0.39558804  0.82220694    -0.78700
O770        O  0.48999798  0.47429549  0.93971213    -0.82900
O771        O  0.44147922  0.53237292  0.89363878    -0.77700
O772        O  0.39293141  0.39104931  0.93891295    -0.79500
O773        O  0.48087894  0.42331699  0.80881172    -0.82200
C774        C  0.40155776  0.53576089  0.89401424     0.98500
C775        C  0.46177789  0.47900392  0.96491920     1.06000
O776        O  0.43944688  0.43952405  0.88216610    -1.11200
O777        O  0.50256887  0.37743706  0.88496853    -0.73700
O778        O  0.53269738  0.43921039  0.87605892    -0.77100
O779        O  0.37795309  0.50479502  0.88699260    -0.77800
C780        C  0.53356228  0.40182705  0.88928108     0.97400
O781        O  0.47714686  0.49115356  0.82555486    -0.75800
O782        O  0.41831958  0.34916666  0.89300218    -0.81000
C783        C  0.35847929  0.40418670  0.83425988     1.00100
C784        C  0.40061508  0.35481141  0.92567795     1.06000
O785        O  0.35130360  0.42088035  0.86724491    -0.76600
C786        C  0.48333451  0.46279387  0.80061032     1.04300
Fe787      Fe  0.26228196  0.23395327  0.00485441     1.65800
Fe788      Fe  0.35663357  0.19961223  0.53516890     1.73200
Fe789      Fe  0.29653500  0.13876973  0.97663584     1.54400
O790        O  0.23925272  0.12920034  0.00128360    -0.80400
O791        O  0.39522374  0.16836500  0.99452675    -0.78700
O792        O  0.21284048  0.19186315  0.49403112    -0.82900
O793        O  0.27045805  0.24073135  0.94814145    -0.77700
O794        O  0.32417677  0.10161344  0.52103656    -0.79500
O795        O  0.36783354  0.25273497  0.50330414    -0.82200
C796        C  0.26544182  0.21248212  0.92300146     0.98500
C797        C  0.20843285  0.15283349  0.99386188     1.06000
O798        O  0.30572383  0.18969149  0.50597597    -1.11200
O799        O  0.32165709  0.23107337  0.57936773    -0.73700
O800        O  0.25381969  0.22735855  0.56236770    -0.77100
O801        O  0.26978310  0.17301645  0.93010980    -0.77800
C802        C  0.28211256  0.23346094  0.58743881     0.97400
O803        O  0.30577317  0.28310006  0.01202340    -0.75800
O804        O  0.34959921  0.14546909  0.56607538    -0.81000
C805        C  0.38940596  0.15027647  0.96203449     1.00100
C806        C  0.34093694  0.10877729  0.55401634     1.06000
O807        O  0.35305889  0.14248368  0.94898656    -0.76600
C808        C  0.34344558  0.28372043  0.49898709     1.04300
Fe809      Fe  0.51133181  0.01189142  0.88319979     1.65800
Fe810      Fe  0.54482945  0.10595792  0.85337602     1.73200
Fe811      Fe  0.60613933  0.04719643  0.91168758     1.54400
O812        O  0.57214109  0.02020514  0.95818547    -0.80400
O813        O  0.59911298  0.09932587  0.82251151    -0.78700
O814        O  0.50447812  0.01996889  0.93986994    -0.82900
O815        O  0.55323028  0.96211660  0.89391392    -0.77700
O816        O  0.60149015  0.10362947  0.93919083    -0.79500
O817        O  0.51353096  0.07107424  0.80901816    -0.82200
C818        C  0.59316000  0.95889512  0.89433677     0.98500
C819        C  0.53268342  0.01551575  0.96516183     1.06000
O820        O  0.55494362  0.05500375  0.88242587    -1.11200
O821        O  0.49156708  0.11675513  0.88515753    -0.73700
O822        O  0.46163170  0.05489538  0.87620117    -0.77100
O823        O  0.61663380  0.98994915  0.88733192    -0.77800
C824        C  0.46064864  0.09226157  0.88943445     0.97400
O825        O  0.51746407  0.00323461  0.82579075    -0.75800
O826        O  0.57574037  0.14547502  0.89336931    -0.81000
C827        C  0.63585073  0.09063182  0.83454323     1.00100
C828        C  0.59366797  0.13985950  0.92598491     1.06000
O829        O  0.64303285  0.07385234  0.86751423    -0.76600
C830        C  0.51125818  0.03158511  0.80082099     1.04300
Fe831      Fe  0.73300324  0.76067844  0.50829330     1.65800
Fe832      Fe  0.63895751  0.79517055  0.97854507     1.73200
Fe833      Fe  0.69810693  0.85551681  0.53679032     1.54400
O834        O  0.72517210  0.82151429  0.58317882    -0.80400
O835        O  0.64628796  0.84935613  0.94769875    -0.78700
O836        O  0.72480330  0.75389924  0.56498193    -0.82900
O837        O  0.78296130  0.80238851  0.51897984    -0.77700
O838        O  0.64171825  0.85075175  0.56437299    -0.79500
O839        O  0.67359715  0.76363538  0.93417470    -0.82200
C840        C  0.78626961  0.84229287  0.51928980     0.98500
C841        C  0.72958567  0.78207996  0.59020502     1.06000
O842        O  0.69011392  0.80445640  0.50747078    -1.11200
O843        O  0.62788380  0.74153800  0.51005117    -0.73700
O844        O  0.68966515  0.71128916  0.50130974    -0.77100
O845        O  0.75525992  0.86581304  0.51221891    -0.77800
C846        C  0.65222668  0.71052278  0.51443739     0.97400
O847        O  0.74149990  0.76676406  0.95105752    -0.75800
O848        O  0.59977516  0.82578126  0.51825656    -0.81000
C849        C  0.65532411  0.88598788  0.95968107     1.00100
C850        C  0.60544368  0.84325651  0.55105070     1.06000
O851        O  0.67149966  0.89261274  0.49279683    -0.76600
C852        C  0.71310390  0.76096937  0.92602086     1.04300
Fe853      Fe  0.76226560  0.73377353  0.75498256     1.65800
Fe854      Fe  0.85616918  0.69986284  0.78494612     1.73200
Fe855      Fe  0.79733935  0.63900541  0.72641677     1.54400
O856        O  0.74007342  0.62859711  0.75082475    -0.80400
O857        O  0.89565803  0.66875505  0.74507937    -0.78700
O858        O  0.71233031  0.69203930  0.74426852    -0.82900
O859        O  0.77039740  0.74064378  0.69831118    -0.77700
O860        O  0.82401831  0.60195631  0.77045311    -0.79500
O861        O  0.86735877  0.75297545  0.75310294    -0.82200
C862        C  0.76569407  0.71247640  0.67306595     0.98500
C863        C  0.70903534  0.65213339  0.74383881     1.06000
O864        O  0.80522365  0.69004212  0.75578073    -1.11200
O865        O  0.82136988  0.73135825  0.82922377    -0.73700
O866        O  0.75349323  0.72767814  0.81241732    -0.77100
O867        O  0.77026651  0.67304498  0.68004131    -0.77800
C868        C  0.78186399  0.73380066  0.83740432     0.97400
O869        O  0.80558959  0.78318748  0.76195863    -0.75800
O870        O  0.84903141  0.64566930  0.81578654    -0.81000
C871        C  0.89007737  0.65118707  0.71231326     1.00100
C872        C  0.84053786  0.60900361  0.80355135     1.06000
O873        O  0.85382079  0.64377043  0.69889683    -0.76600
C874        C  0.84296941  0.78394255  0.74868081     1.04300
Fe875      Fe  0.51089201  0.51220208  0.62974689     1.65800
Fe876      Fe  0.54514375  0.60586709  0.65976760     1.73200
Fe877      Fe  0.60600616  0.54672997  0.60153772     1.54400
O878        O  0.61586973  0.48946582  0.62610239    -0.80400
O879        O  0.57627217  0.64518412  0.61975106    -0.78700
O880        O  0.55236242  0.46212775  0.61880261    -0.82900
O881        O  0.50410073  0.52073113  0.57307891    -0.77700
O882        O  0.64312979  0.57311075  0.64568781    -0.79500
O883        O  0.49193013  0.61716105  0.62802209    -0.82200
C884        C  0.53233455  0.51566617  0.54793951     0.98500
C885        C  0.59227124  0.45862844  0.61866787     1.06000
O886        O  0.55485003  0.55494229  0.63067279    -1.11200
O887        O  0.51363808  0.57105652  0.70404478    -0.73700
O888        O  0.51699682  0.50321835  0.68714310    -0.77100
O889        O  0.57182184  0.51992638  0.55504410    -0.77800
C890        C  0.51098520  0.53155622  0.71215386     0.97400
O891        O  0.46159463  0.55552234  0.63704648    -0.75800
O892        O  0.59937214  0.59874054  0.69065744    -0.81000
C893        C  0.59413713  0.63948651  0.58713590     1.00100
C894        C  0.63605224  0.58986405  0.67866083     1.06000
O895        O  0.60183142  0.60321483  0.57396533    -0.76600
C896        C  0.46082325  0.59289383  0.62383361     1.04300
C897        C  0.66993923  0.63288339  0.72934210    -0.15100
C898        C  0.67222117  0.60137553  0.70319484    -0.30300
H899        H  0.64042118  0.64948835  0.73389094     0.13900
H900        H  0.70269486  0.58790956  0.69590042     0.14500
C901        C  0.63676563  0.67312472  0.53559377    -0.15100
C902        C  0.60721028  0.67627718  0.56367324    -0.30300
H903        H  0.65228763  0.64318689  0.53028962     0.13900
H904        H  0.59415253  0.70689559  0.57095853     0.14500
C905        C  0.76813269  0.74509115  0.87693833    -0.15100
C906        C  0.72681514  0.74976100  0.88646039    -0.30300
H907        H  0.79246905  0.74985244  0.89854518     0.13900
H908        H  0.70247872  0.74503261  0.86484780     0.14500
C909        C  0.74232519  0.76769022  0.62848948    -0.15100
C910        C  0.75288670  0.72687260  0.63480358    -0.30300
H911        H  0.74400549  0.79094822  0.65141614     0.13900
H912        H  0.75121476  0.70362010  0.61187261     0.14500
C913        C  0.64392002  0.92215049  0.93510837    -0.15100
C914        C  0.61249336  0.91985526  0.90882657    -0.30300
H915        H  0.65734525  0.95261205  0.94247700     0.13900
H916        H  0.59593446  0.89033677  0.90418475     0.14500
C917        C  0.42618956  0.13716489  0.93858013    -0.15100
C918        C  0.42313983  0.10748914  0.91060362    -0.30300
H919        H  0.45678333  0.15039579  0.94578072     0.13900
H920        H  0.39325450  0.09180275  0.90535690     0.14500
C921        C  0.49476419  0.47651317  0.76111397    -0.15100
C922        C  0.49953087  0.51780340  0.75163221    -0.30300
H923        H  0.49960706  0.45220927  0.73952935     0.13900
H924        H  0.49470516  0.54210122  0.77322530     0.14500
C925        C  0.47616592  0.49182895  0.00321008    -0.15100
C926        C  0.51793598  0.50271144  0.50969726    -0.30300
H927        H  0.45387043  0.49362336  0.52636901     0.13900
H928        H  0.54119578  0.50101597  0.48677049     0.14500
C929        C  0.38771486  0.31800511  0.94913798    -0.15100
C930        C  0.35836174  0.32116743  0.97736731    -0.30300
H931        H  0.40072239  0.28739348  0.94175252     0.13900
H932        H  0.34288911  0.35110688  0.98278820     0.14500
C933        C  0.57105861  0.38649337  0.91043581    -0.15100
C934        C  0.56805195  0.35689143  0.93849513    -0.30300
H935        H  0.60094844  0.40214179  0.90514218     0.13900
H936        H  0.53747503  0.34369158  0.94577271     0.14500
C937        C  0.64320370  0.42207859  0.57802614    -0.15100
C938        C  0.61149978  0.41964788  0.60397944    -0.30300
H939        H  0.65672493  0.45257341  0.57092307     0.13900
H940        H  0.59482594  0.39013512  0.60829619     0.14500
C941        C  0.63630870  0.17352858  0.97749786    -0.15100
C942        C  0.60671355  0.17667304  0.94941077    -0.30300
H943        H  0.65185350  0.14359981  0.98282727     0.13900
H944        H  0.59361983  0.20727860  0.94209990     0.14500
C945        C  0.35087669  0.57269445  0.93465773    -0.15100
C946        C  0.38238596  0.57488670  0.90848918    -0.30300
H947        H  0.33731267  0.54227194  0.94195105     0.13900
H948        H  0.39908026  0.60434261  0.90392352     0.14500
C949        C  0.42651822  0.63776701  0.57458485    -0.15100
C950        C  0.42336409  0.60831491  0.60273997    -0.30300
H951        H  0.45715332  0.65080716  0.56726755     0.13900
H952        H  0.39341292  0.59281370  0.60810965     0.14500
C953        C  0.88385911  0.57508027  0.85398986    -0.15100
C954        C  0.85220234  0.57283025  0.82795360    -0.30300
H955        H  0.90054931  0.60455229  0.85848980     0.13900
H956        H  0.83868191  0.54238889  0.82065917     0.14500
C957        C  0.82282609  0.39302229  0.95252883    -0.15100
C958        C  0.82512782  0.36150886  0.97870342    -0.30300
H959        H  0.79234617  0.40647900  0.94519841     0.13900
H960        H  0.85464610  0.34489423  0.98326613     0.14500
C961        C  0.92382470  0.60852017  0.66091773    -0.15100
C962        C  0.92696065  0.63808853  0.68898179    -0.30300
H963        H  0.89384830  0.59305379  0.65555770     0.13900
H964        H  0.95759904  0.65109600  0.69636154     0.14500
C965        C  0.99980629  0.51823110  0.51134577    -0.15100
C966        C  0.99526893  0.47641223  0.00171035    -0.30300
H967        H  0.99501012  0.54253279  0.48972967     0.13900
H968        H  0.00017823  0.45203736  0.02323614     0.14500
C969        C  0.01872321  0.50212156  0.75331756    -0.15100
C970        C  0.97780945  0.49173158  0.75959381    -0.30300
H971        H  0.04201636  0.50019126  0.77622951     0.13900
H972        H  0.95453492  0.49362966  0.73666344     0.12900
C973        C  0.16975212  0.63356318  0.53395667    -0.15100
C974        C  0.17213967  0.60164631  0.55970131    -0.30300
H975        H  0.14027224  0.65037694  0.52981473     0.13900
H976        H  0.20261721  0.58794754  0.56665298     0.14500
C977        C  0.32490835  0.36065124  0.78386140    -0.15100
C978        C  0.32241890  0.39238643  0.80975154    -0.30300
H979        H  0.35445053  0.34399355  0.77961021     0.13900
H980        H  0.29189064  0.40587688  0.81681775     0.14500
C981        C  0.22685356  0.24910370  0.63636011    -0.15100
C982        C  0.26822568  0.24466998  0.62694010    -0.30300
H983        H  0.20260337  0.24423654  0.61469252     0.13900
H984        H  0.29247845  0.24956854  0.64860003     0.14500
C985        C  0.25243403  0.22682605  0.88473373    -0.15100
C986        C  0.24176638  0.26763101  0.87835765    -0.30300
H987        H  0.25061633  0.20351572  0.86186211     0.13900
H988        H  0.24361085  0.29095382  0.90121640     0.14500
C989        C  0.07154999  0.38619798  0.85230939    -0.15100
C990        C  0.06826568  0.35685774  0.82405627    -0.30300
H991        H  0.10155856  0.40158778  0.85769991     0.13900
H992        H  0.03758424  0.34392067  0.81672132     0.14500
C993        C  0.11168993  0.41922401  0.65829312    -0.15100
C994        C  0.14341986  0.42138483  0.68426944    -0.30300
H995        H  0.09483419  0.38982216  0.65392747     0.13900
H996        H  0.15714162  0.45177782  0.69141470     0.14500
C997        C  0.67196911  0.10229456  0.81002845    -0.15100
C998        C  0.66966272  0.13389136  0.78394751    -0.30300
H999        H  0.70244586  0.08874390  0.81722455     0.13900
H1000       H  0.64017596  0.15060206  0.77951079     0.14500
C1001       C  0.76870806  0.24535155  0.63624311    -0.15100
C1002       C  0.72741284  0.25001511  0.62665715    -0.30300
H1003       H  0.79307370  0.25017736  0.61470167     0.13900
H1004       H  0.70305248  0.24516708  0.64819897     0.14500
C1005       C  0.75277957  0.22716944  0.87828144    -0.15100
C1006       C  0.74197113  0.26794320  0.88453775    -0.30300
H1007       H  0.75109401  0.20391593  0.90122264     0.13900
H1008       H  0.74363712  0.29118949  0.86158977     0.14500
C1009       C  0.85905187  0.32144246  0.78513922    -0.15100
C1010       C  0.88838574  0.31831429  0.81341674    -0.30300
H1011       H  0.84366179  0.35140321  0.77958546     0.13900
H1012       H  0.90128146  0.28768603  0.82094507     0.14500
C1013       C  0.82289483  0.89305462  0.55999472    -0.15100
C1014       C  0.82529220  0.86159241  0.53381353    -0.30300
H1015       H  0.79238561  0.90642378  0.56731667     0.13900
H1016       H  0.85485116  0.84506770  0.52924286     0.14500
C1017       C  0.85834054  0.82125924  0.72734232    -0.15100
C1018       C  0.88789287  0.81803555  0.69925287    -0.30300
H1019       H  0.84283351  0.85121428  0.73260109     0.13900
H1020       H  0.90093587  0.78740040  0.69200605     0.14500
C1021       C  0.85193825  0.07265203  0.68522479    -0.15100
C1022       C  0.88365131  0.07490132  0.65925578    -0.30300
H1023       H  0.83833232  0.04221985  0.69241328     0.13900
H1024       H  0.90038429  0.10436434  0.65484780     0.14500
C1025       C  0.13729216  0.67309949  0.72751756    -0.15100
C1026       C  0.10769085  0.67603866  0.69944057    -0.30300
H1027       H  0.15295022  0.64324612  0.73292284     0.13900
H1028       H  0.09449838  0.70659033  0.69208608     0.14500
C1029       C  0.22696718  0.75007777  0.87653293    -0.15100
C1030       C  0.26823724  0.74536109  0.88617078    -0.30300
H1031       H  0.20256988  0.74534914  0.89806240     0.13900
H1032       H  0.29263397  0.75004371  0.86463262     0.14500
C1033       C  0.24261273  0.76789507  0.63449172    -0.15100
C1034       C  0.25319938  0.72704254  0.62829714    -0.30300
H1035       H  0.24435449  0.79110259  0.61151503     0.13900
H1036       H  0.25142510  0.70382437  0.65126220     0.14500
C1037       C  0.07175225  0.88615560  0.65999743    -0.15100
C1038       C  0.06862258  0.85657776  0.68804498    -0.30300
H1039       H  0.10168460  0.90171544  0.65467861     0.13900
H1040       H  0.03800411  0.84348931  0.69534822     0.14500
C1041       C  0.13586181  0.17318106  0.78565428    -0.15100
C1042       C  0.10641283  0.17644946  0.81380802    -0.30300
H1043       H  0.15131225  0.14320526  0.78035180     0.13900
H1044       H  0.09341533  0.20709260  0.82109674     0.14500
C1045       C  0.16939085  0.13368709  0.97915812    -0.15100
C1046       C  0.17177748  0.10203193  0.95317026    -0.30300
H1047       H  0.13987410  0.15035665  0.98351509     0.13900
H1048       H  0.20227671  0.08852525  0.94602943     0.14500
C1049       C  0.99978670  0.01769313  0.00190361    -0.15100
C1050       C  0.99503347  0.97661880  0.51117689    -0.30300
H1051       H  0.99489476  0.04200896  0.02346793     0.13900
H1052       H  0.99973452  0.95230829  0.48957216     0.14500
C1053       C  0.97732048  0.99157548  0.75336114    -0.15100
C1054       C  0.01804961  0.00255771  0.75968813    -0.30300
H1055       H  0.95404474  0.99304236  0.77628806     0.13900
H1056       H  0.04132652  0.00110395  0.73676123     0.14500
C1057       C  0.92311571  0.10784160  0.85260599    -0.15100
C1058       C  0.92638377  0.13745700  0.82459625    -0.30300
H1059       H  0.89314608  0.09231324  0.85782323     0.13900
H1060       H  0.95705161  0.15049780  0.81739461     0.14500
C1061       C  0.14299034  0.92212154  0.82747505    -0.15100
C1062       C  0.11172985  0.91969249  0.85388469    -0.30300
H1063       H  0.15625260  0.95264589  0.82007541     0.13900
H1064       H  0.09528705  0.89011960  0.85857598     0.14500
C1065       C  0.35868452  0.82145006  0.53555650    -0.15100
C1066       C  0.38799305  0.81825824  0.56387924    -0.30300
H1067       H  0.34338901  0.85145361  0.52998090     0.13900
H1068       H  0.40078424  0.78758881  0.57141237     0.14500
C1069       C  0.49570092  0.97649621  0.75177538    -0.15100
C1070       C  0.50007834  0.01781839  0.76128129    -0.30300
H1071       H  0.50057731  0.95221484  0.77339564     0.13900
H1072       H  0.49516196  0.04210340  0.73967176     0.14500
C1073       C  0.47868608  0.99153823  0.50977250    -0.15100
C1074       C  0.51825238  0.00283546  0.00347547    -0.30300
H1075       H  0.45543140  0.99334667  0.48682022     0.13900
H1076       H  0.54279534  0.00046130  0.52650547     0.14500
C1077       C  0.38497623  0.07498158  0.60395565    -0.15100
C1078       C  0.35277173  0.07271747  0.57848081    -0.30300
H1079       H  0.40193874  0.10438412  0.60796156     0.13900
H1080       H  0.33891392  0.04231170  0.57160888     0.14500
C1081       C  0.32328687  0.89369929  0.70290831    -0.15100
C1082       C  0.32547835  0.86211240  0.72901346    -0.30300
H1083       H  0.29284932  0.90722824  0.69554367     0.13900
H1084       H  0.35496754  0.84545214  0.73359656     0.14500
C1085       C  0.56865021  0.85617567  0.57453875    -0.15100
C1086       C  0.57195006  0.88539890  0.60287428    -0.30300
H1087       H  0.53795686  0.84336197  0.56706450     0.13900
H1088       H  0.60198728  0.90069003  0.60837138     0.14500
loop_ 
_geom_bond_atom_site_label_1 
_geom_bond_atom_site_label_2 
_geom_bond_distance 
_geom_bond_site_symmetry_2 
_ccdc_geom_bond_type 
Fe1          O17   2.100       .  S
Fe1           O7   1.995       .  S
Fe1          O14   2.021       .  S
Fe1           O6   2.099   1_565  S
Fe1          O12   1.947       .  S
Fe2           O5   2.112       .  S
Fe2           O9   2.047       .  S
Fe2          O13   2.140       .  S
Fe2          O18   2.038       .  S
Fe2          O12   1.931       .  S
Fe3          O21   2.037       .  S
Fe3           O8   2.106       .  S
Fe3          O15   2.121       .  S
Fe3           O4   2.032   1_565  S
Fe3          O12   1.931       .  S
O4           C11   1.260       .  A
O5           C19   1.278       .  A
O6           C11   1.271       .  A
O7           C10   1.261       .  A
O8           C20   1.281       .  A
O9           C22   1.261       .  A
C10          O15   1.284       .  A
C10         C529   1.462       .  S
C11         C533   1.471       .  S
O13          C16   1.288       .  A
O14          C16   1.264       .  A
C16         C525   1.483       .  S
O17          C22   1.273       .  A
O18          C20   1.268       .  A
C19          O21   1.263       .  A
C19         C522   1.483       .  S
C20         C537   1.474       .  S
C22         C542   1.480       .  S
Fe23         O39   2.099   1_455  S
Fe23         O29   1.995       .  S
Fe23         O36   2.020       .  S
Fe23         O28   2.100   1_545  S
Fe23         O34   1.946       .  S
Fe24         O27   2.110       .  S
Fe24         O31   2.047   1_455  S
Fe24         O35   2.139       .  S
Fe24         O40   2.039       .  S
Fe24         O34   1.931       .  S
Fe25         O43   2.036       .  S
Fe25         O30   2.106       .  S
Fe25         O37   2.121       .  S
Fe25         O26   2.032   1_545  S
Fe25         O34   1.930       .  S
O26          C33   1.260       .  A
O27          C41   1.278       .  A
O28          C33   1.272       .  A
O29          C32   1.261       .  A
O30          C42   1.281       .  A
O31          C44   1.260       .  A
C32          O37   1.284       .  A
C32         C510   1.461       .  S
C33         C518   1.472       .  S
O35          C38   1.288       .  A
O36          C38   1.264       .  A
C38         C505   1.482   1_455  S
O39          C44   1.272       .  A
O40          C42   1.268       .  A
C41          O43   1.263       .  A
C41         C498   1.482       .  S
C42         C502   1.475       .  S
C44         C513   1.479       .  S
Fe45         O61   2.099       .  S
Fe45         O51   1.994       .  S
Fe45         O58   2.020       .  S
Fe45         O50   2.099       .  S
Fe45         O56   1.947       .  S
Fe46         O49   2.110       .  S
Fe46         O53   2.047       .  S
Fe46         O57   2.139       .  S
Fe46         O62   2.039       .  S
Fe46         O56   1.932       .  S
Fe47         O65   2.036       .  S
Fe47         O52   2.106       .  S
Fe47         O59   2.121       .  S
Fe47         O48   2.032       .  S
Fe47         O56   1.930       .  S
O48          C55   1.259       .  A
O49          C63   1.278       .  A
O50          C55   1.271       .  A
O51          C54   1.261       .  A
O52          C64   1.281       .  A
O53          C66   1.261       .  A
C54          O59   1.284       .  A
C54         C489   1.461       .  S
C55         C538   1.471       .  S
O57          C60   1.288       .  A
O58          C60   1.264       .  A
C60         C485   1.482       .  S
O61          C66   1.272       .  A
O62          C64   1.268       .  A
C63          O65   1.263       .  A
C63         C494   1.482       .  S
C64         C517   1.475       .  S
C66         C481   1.480       .  S
Fe67         O83   2.020       .  S
Fe67         O73   2.099   1_565  S
Fe67         O80   2.099   1_655  S
Fe67         O72   1.994       .  S
Fe67         O78   1.946       .  S
Fe68         O71   2.037       .  S
Fe68         O75   2.139       .  S
Fe68         O79   2.046   1_655  S
Fe68         O84   2.111       .  S
Fe68         O78   1.932       .  S
Fe69         O87   2.106       .  S
Fe69         O74   2.037       .  S
Fe69         O81   2.033   1_565  S
Fe69         O70   2.121       .  S
Fe69         O78   1.930       .  S
O70          C77   1.284       .  A
O71          C85   1.268       .  A
O72          C77   1.261       .  A
O73          C76   1.271       .  A
O74          C86   1.263       .  A
O75          C88   1.288       .  A
C76          O81   1.260       .  A
C76         C478   1.472       .  S
C77         C509   1.461       .  S
O79          C82   1.260       .  A
O80          C82   1.273       .  A
C82         C493   1.479       .  S
O83          C88   1.264       .  A
O84          C86   1.278       .  A
C85          O87   1.281       .  A
C85         C469   1.473       .  S
C86         C474   1.483       .  S
C88         C506   1.482       .  S
Fe89        O105   2.020       .  S
Fe89         O95   2.099       .  S
Fe89        O102   2.098       .  S
Fe89         O94   1.995       .  S
Fe89        O100   1.947       .  S
Fe90         O93   2.039       .  S
Fe90         O97   2.141       .  S
Fe90        O101   2.047       .  S
Fe90        O106   2.112       .  S
Fe90        O100   1.932       .  S
Fe91        O109   2.106       .  S
Fe91         O96   2.036       .  S
Fe91        O103   2.032       .  S
Fe91         O92   2.121       .  S
Fe91        O100   1.930       .  S
O92          C99   1.284       .  A
O93         C107   1.268       .  A
O94          C99   1.261       .  A
O95          C98   1.272       .  A
O96         C108   1.263       .  A
O97         C110   1.288       .  A
C98         O103   1.259       .  A
C98         C454   1.472       .  S
C99         C461   1.462       .  S
O101        C104   1.260       .  A
O102        C104   1.272       .  A
C104        C465   1.479       .  S
O105        C110   1.264       .  A
O106        C108   1.278       .  A
C107        O109   1.281       .  A
C107        C477   1.475       .  S
C108        C514   1.483       .  S
C110        C457   1.483       .  S
Fe111       O127   2.020       .  S
Fe111       O117   2.099       .  S
Fe111       O124   2.099       .  S
Fe111       O116   1.995       .  S
Fe111       O122   1.946       .  S
Fe112       O115   2.039       .  S
Fe112       O119   2.139       .  S
Fe112       O123   2.047       .  S
Fe112       O128   2.113       .  S
Fe112       O122   1.931       .  S
Fe113       O131   2.106       .  S
Fe113       O118   2.035       .  S
Fe113       O125   2.031       .  S
Fe113       O114   2.121       .  S
Fe113       O122   1.930       .  S
O114        C121   1.284       .  A
O115        C129   1.268       .  A
O116        C121   1.261       .  A
O117        C120   1.271       .  A
O118        C130   1.263       .  A
O119        C132   1.288       .  A
C120        O125   1.259       .  A
C120        C433   1.471       .  S
C121        C442   1.462       .  S
O123        C126   1.261       .  A
O124        C126   1.272       .  A
C126        C497   1.479       .  S
O127        C132   1.264       .  A
O128        C130   1.278       .  A
C129        O131   1.281       .  A
C129        C450   1.475       .  S
C130        C446   1.483       .  S
C132        C437   1.482       .  S
Fe133       O149   2.019       .  S
Fe133       O139   2.098       .  S
Fe133       O146   2.100   1_455  S
Fe133       O138   1.993       .  S
Fe133       O144   1.947       .  S
Fe134       O137   2.038       .  S
Fe134       O141   2.139       .  S
Fe134       O145   2.046   1_455  S
Fe134       O150   2.111       .  S
Fe134       O144   1.932       .  S
Fe135       O153   2.106       .  S
Fe135       O140   2.037       .  S
Fe135       O147   2.033       .  S
Fe135       O136   2.120       .  S
Fe135       O144   1.932       .  S
O136        C143   1.284       .  A
O137        C151   1.268       .  A
O138        C143   1.261       .  A
O139        C142   1.271       .  A
O140        C152   1.263       .  A
O141        C154   1.288       .  A
C142        O147   1.260       .  A
C142        C449   1.471       .  S
C143        C425   1.461       .  S
O145        C148   1.260       .  A
O146        C148   1.273       .  A
C148        C417   1.480       .  S
O149        C154   1.264       .  A
O150        C152   1.278       .  A
C151        O153   1.281       .  A
C151        C430   1.474       .  S
C152        C482   1.483       .  S
C154        C421   1.482   1_455  S
Fe155       O171   2.099   1_655  S
Fe155       O161   1.994       .  S
Fe155       O168   2.020       .  S
Fe155       O160   2.100       .  S
Fe155       O166   1.946       .  S
Fe156       O159   2.112       .  S
Fe156       O163   2.047   1_655  S
Fe156       O167   2.139       .  S
Fe156       O172   2.039       .  S
Fe156       O166   1.931       .  S
Fe157       O175   2.035       .  S
Fe157       O162   2.105       .  S
Fe157       O169   2.120       .  S
Fe157       O158   2.031       .  S
Fe157       O166   1.929       .  S
O158        C165   1.259       .  A
O159        C173   1.278       .  A
O160        C165   1.272       .  A
O161        C164   1.260       .  A
O162        C174   1.281       .  A
O163        C176   1.261       .  A
C164        O169   1.284       .  A
C164        C426   1.460       .  S
C165        C409   1.471       .  S
O167        C170   1.288       .  A
O168        C170   1.264       .  A
C170        C422   1.482       .  S
O171        C176   1.273       .  A
O172        C174   1.268       .  A
C173        O175   1.263       .  A
C173        C466   1.482       .  S
C174        C413   1.474       .  S
C176        C445   1.479       .  S
Fe177       O183   2.100       .  S
Fe177       O190   2.100       .  S
Fe177       O182   1.994       .  S
Fe177       O737   2.020   1_554  S
Fe177       O188   1.947       .  S
Fe178       O181   2.040       .  S
Fe178       O185   2.139       .  S
Fe178       O733   2.048       .  S
Fe178       O738   2.110       .  S
Fe178       O732   1.931       .  S
Fe179       O184   2.037       .  S
Fe179       O191   2.031       .  S
Fe179       O180   2.121       .  S
Fe179       O741   2.105   1_554  S
Fe179       O188   1.931       .  S
O180        C187   1.284       .  A
O181        C195   1.268       .  A
O182        C187   1.261       .  A
O183        C186   1.271       .  A
O184        C196   1.263       .  A
O185        C198   1.288       .  A
C186        O191   1.259       .  A
C186        C429   1.471       .  S
C187        C490   1.461       .  S
O188       Fe722   1.931   1_554  S
O189       Fe722   2.048   1_554  S
O189        C192   1.261       .  A
O190        C192   1.272       .  A
C192        C521   1.480       .  S
O193       Fe721   2.019       .  S
O193        C198   1.265       .  A
O194       Fe722   2.110   1_554  S
O194        C196   1.278       .  A
C195        O197   1.281       .  A
C195        C401   1.475       .  S
C196        C405   1.482       .  S
O197       Fe723   2.105       .  S
C198        C486   1.482       .  S
Fe199       O215   2.099       .  S
Fe199       O205   1.995       .  S
Fe199       O756   2.020       .  S
Fe199       O748   2.098       .  S
Fe199       O754   1.946       .  S
Fe200       O207   2.046       .  S
Fe200       O211   2.141       .  S
Fe200       O216   2.038       .  S
Fe200       O747   2.111   1_554  S
Fe200       O210   1.932       .  S
Fe201       O219   2.036       .  S
Fe201       O213   2.121       .  S
Fe201       O202   2.032       .  S
Fe201       O750   2.106       .  S
Fe201       O754   1.931       .  S
O202        C209   1.260       .  A
O203       Fe744   2.110       .  S
O203        C217   1.278       .  A
O204       Fe743   2.099   1_556  S
O204        C753   1.271       .  A
O205        C208   1.261       .  A
O206       Fe745   2.106   1_554  S
O206        C218   1.281       .  A
O207        C220   1.260   1_554  A
C208        O213   1.284       .  A
C208        C462   1.462       .  S
C209        O748   1.271       .  A
C209        C414   1.471       .  S
O210       Fe743   1.947       .  S
O210       Fe745   1.931   1_554  S
O211        C214   1.288       .  A
O212       Fe743   2.021       .  S
O212        C214   1.264       .  A
C214        C458   1.483       .  S
O215        C764   1.272       .  A
O216        C218   1.268       .  A
C217        O219   1.263       .  A
C217        C390   1.482       .  S
C218        C393   1.474       .  S
C220        O759   1.272   1_556  A
C220        C941   1.479       .  S
Fe221       O237   2.020       .  S
Fe221       O227   2.098       .  S
Fe221       O234   2.099       .  S
Fe221       O226   1.995       .  S
Fe221       O232   1.946       .  S
Fe222       O225   2.037       .  S
Fe222       O229   2.139       .  S
Fe222       O233   2.046       .  S
Fe222       O238   2.111       .  S
Fe222       O232   1.932       .  S
Fe223       O241   2.105       .  S
Fe223       O228   2.037       .  S
Fe223       O235   2.033       .  S
Fe223       O224   2.121       .  S
Fe223       O232   1.930       .  S
O224        C231   1.284       .  A
O225        C239   1.268       .  A
O226        C231   1.261       .  A
O227        C230   1.271       .  A
O228        C240   1.263       .  A
O229        C242   1.288       .  A
C230        O235   1.260       .  A
C230        C402   1.472       .  S
C231        C381   1.461       .  S
O233        C236   1.261       .  A
O234        C236   1.272       .  A
C236        C389   1.479       .  S
O237        C242   1.264       .  A
O238        C240   1.278       .  A
C239        O241   1.281       .  A
C239        C434   1.474       .  S
C240        C385   1.483       .  S
C242        C377   1.482       .  S
Fe243       O259   2.099       .  S
Fe243       O249   1.994       .  S
Fe243       O800   2.020       .  S
Fe243       O792   2.099       .  S
Fe243       O798   1.946       .  S
Fe244       O251   2.047       .  S
Fe244       O255   2.139       .  S
Fe244       O260   2.039       .  S
Fe244       O791   2.111   1_554  S
Fe244       O254   1.931       .  S
Fe245       O263   2.037       .  S
Fe245       O257   2.121       .  S
Fe245       O246   2.032       .  S
Fe245       O794   2.105       .  S
Fe245       O798   1.930       .  S
O246        C253   1.260       .  A
O247       Fe788   2.112       .  S
O247        C261   1.278       .  A
O248       Fe787   2.098   1_556  S
O248        C797   1.271       .  A
O249        C252   1.261       .  A
O250       Fe789   2.105   1_554  S
O250        C262   1.281       .  A
O251        C264   1.260   1_554  A
C252        O257   1.284       .  A
C252        C441   1.462       .  S
C253        O792   1.271       .  A
C253        C501   1.472       .  S
O254       Fe787   1.947       .  S
O254       Fe789   1.930   1_554  S
O255        C258   1.288       .  A
O256       Fe787   2.020       .  S
O256        C258   1.265       .  A
C258        C438   1.482       .  S
O259        C808   1.272       .  A
O260        C262   1.268       .  A
C261        O263   1.263       .  A
C261        C373   1.483       .  S
C262        C534   1.474       .  S
C264        O803   1.272   1_556  A
C264        C930   1.478       .  S
Fe265       O281   2.020       .  S
Fe265       O271   2.097   1_545  S
Fe265       O278   2.099       .  S
Fe265       O270   1.994       .  S
Fe265       O276   1.946       .  S
Fe266       O269   2.039       .  S
Fe266       O273   2.141       .  S
Fe266       O277   2.048       .  S
Fe266       O282   2.110       .  S
Fe266       O276   1.932       .  S
Fe267       O285   2.106       .  S
Fe267       O272   2.038       .  S
Fe267       O279   2.033   1_545  S
Fe267       O268   2.122       .  S
Fe267       O276   1.931       .  S
O268        C275   1.284       .  A
O269        C283   1.268       .  A
O270        C275   1.261       .  A
O271        C274   1.271       .  A
O272        C284   1.263       .  A
O273        C286   1.288       .  A
C274        O279   1.260       .  A
C274        C370   1.470       .  S
C275        C530   1.462       .  S
O277        C280   1.261       .  A
O278        C280   1.272       .  A
C280        C374   1.480       .  S
O281        C286   1.264       .  A
O282        C284   1.278       .  A
C283        O285   1.281       .  A
C283        C453   1.474       .  S
C284        C398   1.483       .  S
C286        C526   1.483       .  S
Fe287       O293   2.099       .  S
Fe287       O300   2.100       .  S
Fe287       O292   1.994       .  S
Fe287       O847   2.020   1_554  S
Fe287       O298   1.947       .  S
Fe288       O291   2.039       .  S
Fe288       O295   2.140       .  S
Fe288       O843   2.047       .  S
Fe288       O848   2.112       .  S
Fe288       O842   1.931       .  S
Fe289       O307   2.105   1_554  S
Fe289       O294   2.037       .  S
Fe289       O301   2.031       .  S
Fe289       O290   2.122       .  S
Fe289       O298   1.930       .  S
O290        C297   1.284       .  A
O291        C305   1.268       .  A
O292        C297   1.261       .  A
O293        C296   1.271       .  A
O294        C306   1.263       .  A
O295        C308   1.288       .  A
C296        O301   1.259       .  A
C296        C470   1.471       .  S
C297        C365   1.461       .  S
O298       Fe832   1.931   1_554  S
O299       Fe832   2.048   1_554  S
O299        C302   1.261       .  A
O300        C302   1.273       .  A
C302        C357   1.480       .  S
O303       Fe831   2.021       .  S
O303        C308   1.264       .  A
O304       Fe832   2.111   1_554  S
O304        C306   1.278       .  A
C305        O851   1.281       .  A
C305        C369   1.473       .  S
C306        C541   1.483       .  S
O307        C849   1.281       .  A
C308        C362   1.483       .  S
Fe309       O325   2.100       .  S
Fe309       O315   1.994       .  S
Fe309       O322   2.020       .  S
Fe309       O314   2.099       .  S
Fe309       O320   1.947       .  S
Fe310       O313   2.111       .  S
Fe310       O317   2.047       .  S
Fe310       O321   2.140       .  S
Fe310       O326   2.038       .  S
Fe310       O320   1.931       .  S
Fe311       O329   2.036       .  S
Fe311       O316   2.106       .  S
Fe311       O323   2.121       .  S
Fe311       O312   2.033       .  S
Fe311       O320   1.931       .  S
O312        C319   1.260       .  A
O313        C327   1.278       .  A
O314        C319   1.271       .  A
O315        C318   1.261       .  A
O316        C328   1.282       .  A
O317        C330   1.261       .  A
C318        O323   1.284       .  A
C318        C366   1.461       .  S
C319        C353   1.472       .  S
O321        C324   1.288       .  A
O322        C324   1.264       .  A
C324        C361   1.483       .  S
O325        C330   1.272       .  A
O326        C328   1.268       .  A
C327        O329   1.263       .  A
C327        C418   1.482       .  S
C328        C410   1.474       .  S
C330        C473   1.480       .  S
Fe331       O347   2.099       .  S
Fe331       O337   1.995       .  S
Fe331       O344   2.020       .  S
Fe331       O336   2.099       .  S
Fe331       O342   1.947       .  S
Fe332       O335   2.112       .  S
Fe332       O339   2.046       .  S
Fe332       O343   2.139       .  S
Fe332       O348   2.039       .  S
Fe332       O342   1.932       .  S
Fe333       O351   2.037       .  S
Fe333       O338   2.106       .  S
Fe333       O345   2.121       .  S
Fe333       O334   2.032       .  S
Fe333       O342   1.930       .  S
O334        C341   1.259       .  A
O335        C349   1.278       .  A
O336        C341   1.271       .  A
O337        C340   1.261       .  A
O338        C350   1.281       .  A
O339        C352   1.261       .  A
C340        O345   1.284       .  A
C340        C382   1.462       .  S
C341        C394   1.471       .  S
O343        C346   1.288       .  A
O344        C346   1.264       .  A
C346        C378   1.482       .  S
O347        C352   1.272       .  A
O348        C350   1.268       .  A
C349        O351   1.263       .  A
C349        C358   1.483       .  S
C350        C354   1.475       .  S
C352        C406   1.479       .  S
C353        C354   1.352       .  D
C353        H355   1.087       .  S
C354        H356   1.087       .  S
C357        C358   1.356       .  D
C357        H359   1.086       .  S
C358        H360   1.087       .  S
C361        C362   1.360       .  D
C361        H363   1.086       .  S
C362        H364   1.086       .  S
C365        C366   1.357       .  D
C365        H367   1.086       .  S
C366        H368   1.086       .  S
C369        C370   1.352       .  D
C369        H371   1.087       .  S
C370        H372   1.087       .  S
C373        C374   1.356       .  D
C373        H375   1.087       .  S
C374        H376   1.086       .  S
C377        C378   1.360       .  D
C377        H379   1.086       .  S
C378        H380   1.086       .  S
C381        C926   1.357       .  D
C381        H927   1.086       .  S
C382        C925   1.357       .  D
C382        H384   1.086   1_554  S
H383        C925   1.086       .  S
C385        C386   1.356       .  D
C385        H387   1.087       .  S
C386        C808   1.479       .  S
C386        H388   1.086       .  S
C389        C390   1.356       .  D
C389        H391   1.086       .  S
C390        H392   1.087       .  S
C393        C394   1.353       .  D
C393        H395   1.087       .  S
C394        H396   1.087       .  S
C397        C764   1.479       .  S
C397        C398   1.356       .  D
C397        H399   1.086       .  S
C398        H400   1.087       .  S
C401        C402   1.352       .  D
C401        H403   1.087       .  S
C402        H404   1.087       .  S
C405        C406   1.355       .  D
C405        H407   1.087       .  S
C406        H408   1.086       .  S
C409        C410   1.353       .  D
C409        H411   1.087       .  S
C410        H412   1.087       .  S
C413        C414   1.352       .  D
C413        H415   1.087       .  S
C414        H416   1.087       .  S
C417        C418   1.356       .  D
C417        H419   1.086       .  S
C418        H420   1.087       .  S
C421        C966   1.360       .  D
C421        H423   1.086   1_554  S
C422        C965   1.360       .  D
C422        H424   1.086   1_655  S
C425        C426   1.357   1_455  D
C425        H427   1.087       .  S
C426        H428   1.086       .  S
C429        C430   1.353       .  D
C429        H431   1.087       .  S
C430        H432   1.087       .  S
C433        C434   1.352       .  D
C433        H435   1.087       .  S
C434        H436   1.087       .  S
C437        C438   1.360       .  D
C437        H439   1.086       .  S
C438        H440   1.086       .  S
C441        C442   1.357       .  D
C441        H443   1.086       .  S
C442        H444   1.087       .  S
C445        C446   1.356       .  D
C445        H447   1.086       .  S
C446        H448   1.087       .  S
C449        C450   1.352       .  D
C449        H451   1.086       .  S
C450        H452   1.087       .  S
C453        C454   1.352       .  D
C453        H455   1.087       .  S
C454        H456   1.087       .  S
C457        C458   1.360       .  D
C457        H459   1.086       .  S
C458        H460   1.086       .  S
C461        C462   1.357       .  D
C461        H463   1.086       .  S
C462        H464   1.086       .  S
C465        C466   1.356       .  D
C465        H467   1.086       .  S
C466        H468   1.087       .  S
C469        C470   1.352       .  D
C469        H471   1.087       .  S
C470        H472   1.087       .  S
C473        C474   1.356       .  D
C473        H475   1.086       .  S
C474        H476   1.087       .  S
C477        C478   1.353       .  D
C477        H479   1.087       .  S
C478        H480   1.087       .  S
C481        C482   1.356       .  D
C481        H483   1.086       .  S
C482        H484   1.087       .  S
C485        C486   1.360       .  D
C485        H487   1.086       .  S
C486        H488   1.086       .  S
C489        C490   1.357       .  D
C489        H491   1.087       .  S
C490        H492   1.086       .  S
C493        C494   1.356       .  D
C493        H495   1.086       .  S
C494        H496   1.087       .  S
C497        C498   1.355       .  D
C497        H499   1.086       .  S
C498        H500   1.087       .  S
C501        C502   1.352       .  D
C501        H503   1.087       .  S
C502        H504   1.087       .  S
C505       C1050   1.360   1_545  D
C505        H507   1.086       .  S
C506       C1049   1.360   1_565  D
C506        H508   1.086   1_654  S
C509        C510   1.357   1_665  D
C509        H511   1.086       .  S
C510        H512   1.086       .  S
C513        C514   1.356       .  D
C513        H515   1.086       .  S
C514        H516   1.087       .  S
C517        C518   1.353       .  D
C517        H519   1.087       .  S
C518        H520   1.087       .  S
C521        C522   1.356       .  D
C521        H523   1.086       .  S
C522        H524   1.087       .  S
C525        C526   1.361   1_565  D
C525        H527   1.086       .  S
C526        H528   1.086       .  S
C529       C1074   1.357   1_565  D
C529        H531   1.086   1_554  S
C530       C1073   1.357   1_545  D
C530       H1076   1.086       .  S
H532       C1074   1.086       .  S
C533        C534   1.352       .  D
C533        H535   1.087       .  S
C534        H536   1.087       .  S
C537        C538   1.352       .  D
C537        H539   1.087       .  S
C538        H540   1.087       .  S
C541        C542   1.356       .  D
C541        H543   1.087       .  S
C542        H544   1.086       .  S
Fe545       O561   2.099       .  S
Fe545       O551   1.995       .  S
Fe545       O558   2.019       .  S
Fe545       O550   2.099   1_565  S
Fe545       O556   1.946       .  S
Fe546       O549   2.112       .  S
Fe546       O553   2.047       .  S
Fe546       O557   2.139       .  S
Fe546       O562   2.038       .  S
Fe546       O556   1.930       .  S
Fe547       O565   2.037       .  S
Fe547       O552   2.106       .  S
Fe547       O559   2.122       .  S
Fe547       O548   2.031   1_565  S
Fe547       O556   1.928       .  S
O548        C555   1.259       .  A
O549        C563   1.278       .  A
O550        C555   1.271       .  A
O551        C554   1.261       .  A
O552        C564   1.281       .  A
O553        C566   1.261       .  A
C554        O559   1.284       .  A
C554       C1073   1.462       .  S
C555       C1077   1.471       .  S
O557        C560   1.288       .  A
O558        C560   1.264       .  A
C560       C1069   1.482       .  S
O561        C566   1.272       .  A
O562        C564   1.268       .  A
C563        O565   1.263       .  A
C563       C1066   1.483       .  S
C564       C1081   1.474       .  S
C566       C1086   1.478       .  S
Fe567       O583   2.099   1_455  S
Fe567       O573   1.996       .  S
Fe567       O580   2.021       .  S
Fe567       O572   2.099   1_545  S
Fe567       O578   1.947       .  S
Fe568       O571   2.111       .  S
Fe568       O575   2.045   1_455  S
Fe568       O579   2.139       .  S
Fe568       O584   2.038       .  S
Fe568       O578   1.933       .  S
Fe569       O587   2.035       .  S
Fe569       O574   2.105       .  S
Fe569       O581   2.119       .  S
Fe569       O570   2.032   1_545  S
Fe569       O578   1.931       .  S
O570        C577   1.260       .  A
O571        C585   1.278       .  A
O572        C577   1.271       .  A
O573        C576   1.261       .  A
O574        C586   1.281       .  A
O575        C588   1.260       .  A
C576        O581   1.284       .  A
C576       C1054   1.462       .  S
C577       C1062   1.472       .  S
O579        C582   1.288       .  A
O580        C582   1.265       .  A
C582       C1049   1.482   1_456  S
O583        C588   1.272       .  A
O584        C586   1.268       .  A
C585        O587   1.263       .  A
C585       C1042   1.482       .  S
C586       C1046   1.474       .  S
C588       C1057   1.479       .  S
Fe589       O605   2.100       .  S
Fe589       O595   1.994       .  S
Fe589       O602   2.020       .  S
Fe589       O594   2.099       .  S
Fe589       O600   1.946       .  S
Fe590       O593   2.110       .  S
Fe590       O597   2.048       .  S
Fe590       O601   2.138       .  S
Fe590       O606   2.040       .  S
Fe590       O600   1.932       .  S
Fe591       O609   2.035       .  S
Fe591       O596   2.106       .  S
Fe591       O603   2.121       .  S
Fe591       O592   2.032       .  S
Fe591       O600   1.931       .  S
O592        C599   1.259       .  A
O593        C607   1.278       .  A
O594        C599   1.272       .  A
O595        C598   1.260       .  A
O596        C608   1.282       .  A
O597        C610   1.261       .  A
C598        O603   1.284       .  A
C598       C1033   1.461       .  S
C599       C1082   1.471       .  S
O601        C604   1.288       .  A
O602        C604   1.264       .  A
C604       C1029   1.482       .  S
O605        C610   1.272       .  A
O606        C608   1.268       .  A
C607        O609   1.263       .  A
C607       C1038   1.481       .  S
C608       C1061   1.475       .  S
C610       C1025   1.480       .  S
Fe611       O627   2.021       .  S
Fe611       O617   2.099   1_565  S
Fe611       O624   2.099   1_655  S
Fe611       O616   1.996       .  S
Fe611       O622   1.947       .  S
Fe612       O615   2.037       .  S
Fe612       O619   2.139       .  S
Fe612       O623   2.045   1_655  S
Fe612       O628   2.112       .  S
Fe612       O622   1.932       .  S
Fe613       O631   2.105       .  S
Fe613       O618   2.036       .  S
Fe613       O625   2.032   1_565  S
Fe613       O614   2.119       .  S
Fe613       O622   1.930       .  S
O614        C621   1.284       .  A
O615        C629   1.268       .  A
O616        C621   1.261       .  A
O617        C620   1.271       .  A
O618        C630   1.263       .  A
O619        C632   1.288       .  A
C620        O625   1.259       .  A
C620       C1022   1.472       .  S
C621       C1053   1.461       .  S
O623        C626   1.260       .  A
O624        C626   1.272       .  A
C626       C1037   1.478       .  S
O627        C632   1.265       .  A
O628        C630   1.278       .  A
C629        O631   1.281       .  A
C629       C1013   1.473       .  S
C630       C1018   1.483       .  S
C632       C1050   1.482       .  S
Fe633       O649   2.020       .  S
Fe633       O639   2.099       .  S
Fe633       O646   2.099       .  S
Fe633       O638   1.996       .  S
Fe633       O644   1.946       .  S
Fe634       O637   2.039       .  S
Fe634       O641   2.139       .  S
Fe634       O645   2.047       .  S
Fe634       O650   2.110       .  S
Fe634       O644   1.932       .  S
Fe635       O653   2.106       .  S
Fe635       O640   2.035       .  S
Fe635       O647   2.032       .  S
Fe635       O636   2.121       .  S
Fe635       O644   1.930       .  S
O636        C643   1.284       .  A
O637        C651   1.268       .  A
O638        C643   1.261       .  A
O639        C642   1.271       .  A
O640        C652   1.263       .  A
O641        C654   1.288       .  A
C642        O647   1.260       .  A
C642        C998   1.472       .  S
C643       C1005   1.462       .  S
O645        C648   1.261       .  A
O646        C648   1.272       .  A
C648       C1009   1.478       .  S
O649        C654   1.264       .  A
O650        C652   1.278       .  A
C651        O653   1.281       .  A
C651       C1021   1.475       .  S
C652       C1058   1.481       .  S
C654       C1001   1.482       .  S
Fe655       O671   2.019       .  S
Fe655       O661   2.098       .  S
Fe655       O668   2.098       .  S
Fe655       O660   1.995       .  S
Fe655       O666   1.946       .  S
Fe656       O659   2.039       .  S
Fe656       O663   2.141       .  S
Fe656       O667   2.047       .  S
Fe656       O672   2.112       .  S
Fe656       O666   1.931       .  S
Fe657       O675   2.105       .  S
Fe657       O662   2.036       .  S
Fe657       O669   2.031       .  S
Fe657       O658   2.122       .  S
Fe657       O666   1.929       .  S
O658        C665   1.284       .  A
O659        C673   1.268       .  A
O660        C665   1.261       .  A
O661        C664   1.271       .  A
O662        C674   1.263       .  A
O663        C676   1.288       .  A
C664        O669   1.259       .  A
C664        C977   1.470       .  S
C665        C986   1.462       .  S
O667        C670   1.260       .  A
O668        C670   1.272       .  A
C670       C1041   1.479       .  S
O671        C676   1.264       .  A
O672        C674   1.278       .  A
C673        O675   1.281       .  A
C673        C994   1.474       .  S
C674        C990   1.483       .  S
C676        C981   1.483       .  S
Fe677       O693   2.019       .  S
Fe677       O683   2.098       .  S
Fe677       O690   2.100   1_455  S
Fe677       O682   1.993       .  S
Fe677       O688   1.946       .  S
Fe678       O681   2.038       .  S
Fe678       O685   2.140       .  S
Fe678       O689   2.047   1_455  S
Fe678       O694   2.110       .  S
Fe678       O688   1.931       .  S
Fe679       O697   2.105       .  S
Fe679       O684   2.038       .  S
Fe679       O691   2.033       .  S
Fe679       O680   2.122       .  S
Fe679       O688   1.931       .  S
O680        C687   1.284       .  A
O681        C695   1.268       .  A
O682        C687   1.260       .  A
O683        C686   1.271       .  A
O684        C696   1.263       .  A
O685        C698   1.288       .  A
C686        O691   1.260       .  A
C686        C993   1.471       .  S
C687        C969   1.462       .  S
O689        C692   1.260       .  A
O690        C692   1.272       .  A
C692        C961   1.480       .  S
O693        C698   1.264       .  A
O694        C696   1.278       .  A
C695        O697   1.281       .  A
C695        C974   1.474       .  S
C696       C1026   1.482       .  S
C698        C965   1.482   1_455  S
Fe699       O715   2.099   1_655  S
Fe699       O705   1.994       .  S
Fe699       O712   2.020       .  S
Fe699       O704   2.099       .  S
Fe699       O710   1.946       .  S
Fe700       O703   2.109       .  S
Fe700       O707   2.047   1_655  S
Fe700       O711   2.139       .  S
Fe700       O716   2.039       .  S
Fe700       O710   1.931       .  S
Fe701       O719   2.036       .  S
Fe701       O706   2.107       .  S
Fe701       O713   2.121       .  S
Fe701       O702   2.032       .  S
Fe701       O710   1.930       .  S
O702        C709   1.260       .  A
O703        C717   1.278       .  A
O704        C709   1.271       .  A
O705        C708   1.260       .  A
O706        C718   1.282       .  A
O707        C720   1.261       .  A
C708        O713   1.284       .  A
C708        C970   1.461       .  S
C709        C953   1.471       .  S
O711        C714   1.288       .  A
O712        C714   1.264       .  A
C714        C966   1.482   1_556  S
O715        C720   1.273       .  A
O716        C718   1.268       .  A
C717        O719   1.263       .  A
C717       C1010   1.482       .  S
C718        C957   1.475       .  S
C720        C989   1.479       .  S
Fe721       O727   2.099       .  S
Fe721       O734   2.099       .  S
Fe721       O726   1.994       .  S
Fe721       O732   1.946       .  S
Fe722       O725   2.040       .  S
Fe722       O729   2.139       .  S
Fe723       O728   2.036       .  S
Fe723       O735   2.032       .  S
Fe723       O724   2.122       .  S
Fe723       O732   1.930       .  S
O724        C731   1.284       .  A
O725        C739   1.268       .  A
O726        C731   1.261       .  A
O727        C730   1.271       .  A
O728        C740   1.263       .  A
O729        C742   1.288       .  A
C730        O735   1.259       .  A
C730        C973   1.471       .  S
C731       C1034   1.461       .  S
O733        C736   1.261       .  A
O734        C736   1.272       .  A
C736       C1065   1.480       .  S
O737        C742   1.265       .  A
O738        C740   1.278       .  A
C739        O741   1.281       .  A
C739        C945   1.475       .  S
C740        C949   1.482       .  S
C742       C1030   1.482       .  S
Fe743       O759   2.099       .  S
Fe743       O749   1.995   1_554  S
Fe744       O751   2.048       .  S
Fe744       O755   2.139       .  S
Fe744       O760   2.039       .  S
Fe744       O754   1.932       .  S
Fe745       O763   2.037       .  S
Fe745       O757   2.121       .  S
Fe745       O746   2.032   1_556  S
O746        C753   1.259   1_554  A
O747        C761   1.278       .  A
O749        C752   1.261       .  A
O750        C762   1.281       .  A
O751        C764   1.261       .  A
C752        O757   1.284       .  A
C752       C1006   1.462       .  S
C753        C958   1.472       .  S
O755        C758   1.288       .  A
O756        C758   1.264       .  A
C758       C1002   1.482       .  S
O760        C762   1.268       .  A
C761        O763   1.263       .  A
C761        C934   1.483       .  S
C762        C937   1.474       .  S
Fe765       O781   2.020       .  S
Fe765       O771   2.099       .  S
Fe765       O778   2.100       .  S
Fe765       O770   1.995       .  S
Fe765       O776   1.946       .  S
Fe766       O769   2.038       .  S
Fe766       O773   2.139       .  S
Fe766       O777   2.047       .  S
Fe766       O782   2.110       .  S
Fe766       O776   1.932       .  S
Fe767       O785   2.105       .  S
Fe767       O772   2.036       .  S
Fe767       O779   2.033       .  S
Fe767       O768   2.120       .  S
Fe767       O776   1.931       .  S
O768        C775   1.284       .  A
O769        C783   1.268       .  A
O770        C775   1.261       .  A
O771        C774   1.271       .  A
O772        C784   1.263       .  A
O773        C786   1.288       .  A
C774        O779   1.260       .  A
C774        C946   1.472       .  S
C775        C925   1.462   1_556  S
O777        C780   1.261       .  A
O778        C780   1.273       .  A
C780        C933   1.480       .  S
O781        C786   1.264       .  A
O782        C784   1.278       .  A
C783        O785   1.281       .  A
C783        C978   1.473       .  S
C784        C929   1.482       .  S
C786        C921   1.482       .  S
Fe787       O803   2.098       .  S
Fe787       O793   1.995   1_554  S
Fe788       O795   2.047       .  S
Fe788       O799   2.141       .  S
Fe788       O804   2.038       .  S
Fe788       O798   1.932       .  S
Fe789       O807   2.038       .  S
Fe789       O801   2.122       .  S
Fe789       O790   2.032   1_556  S
O790        C797   1.259   1_554  A
O791        C805   1.278       .  A
O793        C796   1.261       .  A
O794        C806   1.281       .  A
O795        C808   1.261       .  A
C796        O801   1.284       .  A
C796        C985   1.462       .  S
C797       C1045   1.471       .  S
O799        C802   1.288       .  A
O800        C802   1.264       .  A
C802        C982   1.483       .  S
O804        C806   1.268       .  A
C805        O807   1.263       .  A
C805        C917   1.483       .  S
C806       C1078   1.473       .  S
Fe809       O825   2.019       .  S
Fe809       O815   2.098   1_545  S
Fe809       O822   2.100       .  S
Fe809       O814   1.994       .  S
Fe809       O820   1.947       .  S
Fe810       O813   2.039       .  S
Fe810       O817   2.140       .  S
Fe810       O821   2.047       .  S
Fe810       O826   2.112       .  S
Fe810       O820   1.932       .  S
Fe811       O829   2.106       .  S
Fe811       O816   2.036       .  S
Fe811       O823   2.032   1_545  S
Fe811       O812   2.121       .  S
Fe811       O820   1.931       .  S
O812        C819   1.284       .  A
O813        C827   1.268       .  A
O814        C819   1.261       .  A
O815        C818   1.271       .  A
O816        C828   1.263       .  A
O817        C830   1.288       .  A
C818        O823   1.259       .  A
C818        C914   1.471       .  S
C819       C1074   1.462   1_556  S
O821        C824   1.261       .  A
O822        C824   1.273       .  A
C824        C918   1.480       .  S
O825        C830   1.264       .  A
O826        C828   1.278       .  A
C827        O829   1.281       .  A
C827        C997   1.475       .  S
C828        C942   1.482       .  S
C830       C1070   1.482       .  S
Fe831       O837   2.099       .  S
Fe831       O844   2.100       .  S
Fe831       O836   1.995       .  S
Fe831       O842   1.946       .  S
Fe832       O835   2.039       .  S
Fe832       O839   2.140       .  S
Fe833       O851   2.103       .  S
Fe833       O838   2.035       .  S
Fe833       O845   2.031       .  S
Fe833       O834   2.118       .  S
Fe833       O842   1.931       .  S
O834        C841   1.283       .  A
O835        C849   1.268       .  A
O836        C841   1.261       .  A
O837        C840   1.271       .  A
O838        C850   1.263       .  A
O839        C852   1.288       .  A
C840        O845   1.259       .  A
C840       C1014   1.470       .  S
C841        C909   1.461       .  S
O843        C846   1.261       .  A
O844        C846   1.273       .  A
C846        C901   1.479       .  S
O847        C852   1.264       .  A
O848        C850   1.278       .  A
C849        C913   1.475       .  S
C850       C1085   1.482       .  S
C852        C906   1.483       .  S
Fe853       O869   2.100       .  S
Fe853       O859   1.994       .  S
Fe853       O866   2.020       .  S
Fe853       O858   2.099       .  S
Fe853       O864   1.946       .  S
Fe854       O857   2.112       .  S
Fe854       O861   2.047       .  S
Fe854       O865   2.140       .  S
Fe854       O870   2.038       .  S
Fe854       O864   1.932       .  S
Fe855       O873   2.037       .  S
Fe855       O860   2.105       .  S
Fe855       O867   2.119       .  S
Fe855       O856   2.032       .  S
Fe855       O864   1.930       .  S
O856        C863   1.260       .  A
O857        C871   1.278       .  A
O858        C863   1.272       .  A
O859        C862   1.260       .  A
O860        C872   1.281       .  A
O861        C874   1.261       .  A
C862        O867   1.283       .  A
C862        C910   1.461       .  S
C863        C897   1.471       .  S
O865        C868   1.288       .  A
O866        C868   1.264       .  A
C868        C905   1.483       .  S
O869        C874   1.273       .  A
O870        C872   1.268       .  A
C871        O873   1.263       .  A
C871        C962   1.483       .  S
C872        C954   1.473       .  S
C874       C1017   1.480       .  S
Fe875       O891   2.099       .  S
Fe875       O881   1.995       .  S
Fe875       O888   2.020       .  S
Fe875       O880   2.099       .  S
Fe875       O886   1.946       .  S
Fe876       O879   2.112       .  S
Fe876       O883   2.047       .  S
Fe876       O887   2.140       .  S
Fe876       O892   2.039       .  S
Fe876       O886   1.931       .  S
Fe877       O895   2.036       .  S
Fe877       O882   2.105       .  S
Fe877       O889   2.121       .  S
Fe877       O878   2.032       .  S
Fe877       O886   1.930       .  S
O878        C885   1.259       .  A
O879        C893   1.278       .  A
O880        C885   1.271       .  A
O881        C884   1.261       .  A
O882        C894   1.281       .  A
O883        C896   1.261       .  A
C884        O889   1.284       .  A
C884        C926   1.461       .  S
C885        C938   1.471       .  S
O887        C890   1.288       .  A
O888        C890   1.264       .  A
C890        C922   1.482       .  S
O891        C896   1.272       .  A
O892        C894   1.268       .  A
C893        O895   1.263       .  A
C893        C902   1.483       .  S
C894        C898   1.474       .  S
C896        C950   1.479       .  S
C897        C898   1.352       .  D
C897        H899   1.087       .  S
C898        H900   1.087       .  S
C901        C902   1.356       .  D
C901        H903   1.086       .  S
C902        H904   1.087       .  S
C905        C906   1.360       .  D
C905        H907   1.086       .  S
C906        H908   1.086       .  S
C909        C910   1.356       .  D
C909        H911   1.087       .  S
C910        H912   1.087       .  S
C913        C914   1.352       .  D
C913        H915   1.087       .  S
C914        H916   1.087       .  S
C917        C918   1.356       .  D
C917        H919   1.087       .  S
C918        H920   1.086       .  S
C921        C922   1.360       .  D
C921        H923   1.086       .  S
C922        H924   1.086       .  S
C926        H928   1.086       .  S
C929        C930   1.355       .  D
C929        H931   1.087       .  S
C930        H932   1.086       .  S
C933        C934   1.356       .  D
C933        H935   1.086       .  S
C934        H936   1.087       .  S
C937        C938   1.352       .  D
C937        H939   1.087       .  S
C938        H940   1.087       .  S
C941        C942   1.356       .  D
C941        H943   1.086       .  S
C942        H944   1.087       .  S
C945        C946   1.352       .  D
C945        H947   1.087       .  S
C946        H948   1.087       .  S
C949        C950   1.355       .  D
C949        H951   1.087       .  S
C950        H952   1.086       .  S
C953        C954   1.352       .  D
C953        H955   1.087       .  S
C954        H956   1.087       .  S
C957        C958   1.353       .  D
C957        H959   1.087       .  S
C958        H960   1.087       .  S
C961        C962   1.356       .  D
C961        H963   1.086       .  S
C962        H964   1.087       .  S
C965        H967   1.086       .  S
C966        H968   1.086   1_655  S
C969        C970   1.357   1_455  D
C969        H971   1.086       .  S
C970        H972   1.086       .  S
C973        C974   1.352       .  D
C973        H975   1.087       .  S
C974        H976   1.087       .  S
C977        C978   1.352       .  D
C977        H979   1.087       .  S
C978        H980   1.087       .  S
C981        C982   1.360       .  D
C981        H983   1.086       .  S
C982        H984   1.086       .  S
C985        C986   1.357       .  D
C985        H987   1.086       .  S
C986        H988   1.086       .  S
C989        C990   1.356       .  D
C989        H991   1.086       .  S
C990        H992   1.087       .  S
C993        C994   1.352       .  D
C993        H995   1.087       .  S
C994        H996   1.087       .  S
C997        C998   1.352       .  D
C997        H999   1.087       .  S
C998       H1000   1.087       .  S
C1001      C1002   1.360       .  D
C1001      H1003   1.086       .  S
C1002      H1004   1.086       .  S
C1005      C1006   1.357       .  D
C1005      H1007   1.086       .  S
C1006      H1008   1.086       .  S
C1009      C1010   1.355       .  D
C1009      H1011   1.086       .  S
C1010      H1012   1.087       .  S
C1013      C1014   1.352       .  D
C1013      H1015   1.087       .  S
C1014      H1016   1.087       .  S
C1017      C1018   1.356       .  D
C1017      H1019   1.086       .  S
C1018      H1020   1.087       .  S
C1021      C1022   1.353       .  D
C1021      H1023   1.087       .  S
C1022      H1024   1.087       .  S
C1025      C1026   1.356       .  D
C1025      H1027   1.086       .  S
C1026      H1028   1.087       .  S
C1029      C1030   1.360       .  D
C1029      H1031   1.086       .  S
C1030      H1032   1.086       .  S
C1033      C1034   1.357       .  D
C1033      H1035   1.086       .  S
C1034      H1036   1.086       .  S
C1037      C1038   1.355       .  D
C1037      H1039   1.086       .  S
C1038      H1040   1.087       .  S
C1041      C1042   1.356       .  D
C1041      H1043   1.086       .  S
C1042      H1044   1.087       .  S
C1045      C1046   1.352       .  D
C1045      H1047   1.087       .  S
C1046      H1048   1.087       .  S
C1049      H1051   1.086       .  S
C1050      H1052   1.086       .  S
C1053      C1054   1.356   1_665  D
C1053      H1055   1.086       .  S
C1054      H1056   1.087       .  S
C1057      C1058   1.356       .  D
C1057      H1059   1.086       .  S
C1058      H1060   1.087       .  S
C1061      C1062   1.353       .  D
C1061      H1063   1.087       .  S
C1062      H1064   1.086       .  S
C1065      C1066   1.356       .  D
C1065      H1067   1.086       .  S
C1066      H1068   1.087       .  S
C1069      C1070   1.360   1_565  D
C1069      H1071   1.086       .  S
C1070      H1072   1.086       .  S
C1073      H1075   1.086       .  S
C1077      C1078   1.352       .  D
C1077      H1079   1.087       .  S
C1078      H1080   1.087       .  S
C1081      C1082   1.353       .  D
C1081      H1083   1.087       .  S
C1082      H1084   1.087       .  S
C1085      C1086   1.356       .  D
C1085      H1087   1.087       .  S
C1086      H1088   1.086       .  S
