geometry optimzed in LAMMPS
_audit_creation_date              2020-12-01 
_audit_creation_method            'lammps2cif' 
_symmetry_space_group_name_H-M    'P1' 
_symmetry_Int_Tables_number       1 
_symmetry_cell_setting            triclinic 
loop_ 
_symmetry_equiv_pos_as_xyz 
  x,y,z 
_cell_length_a                    26.22952141 
_cell_length_b                    26.235494111098916 
_cell_length_c                    81.71437364634365 
_cell_angle_alpha                 90.01574973580547 
_cell_angle_beta                  90.00429547399524 
_cell_angle_gamma                 120.00816369407693 
loop_ 
_atom_site_label 
_atom_site_type_symbol 
_atom_site_fract_x 
_atom_site_fract_y 
_atom_site_fract_z 
_atom_site_charge 
Zr1        Zr  0.00621476  0.33241778  0.98401588     2.17500
O2          O  0.92158478  0.34186531  0.99215380    -0.51100
O3          O  0.96015254  0.26332011  0.00677355    -0.74300
O4          O  0.92254611  0.28689968  0.96539834    -0.81000
O5          O  0.10604079  0.47022814  0.00916485    -0.82800
O6          O  0.95150444  0.25562652  0.94328702    -0.78400
O7          O  0.01406081  0.41514422  0.99853130    -0.90100
O8          O  0.01204908  0.21732380  0.01221647    -0.76000
O9          O  0.01616137  0.25206003  0.97461171    -0.85500
O10         O  0.07863726  0.33254176  0.00176753    -0.85200
O11         O  0.03888515  0.35768874  0.95599211    -0.72000
O12         O  0.09393305  0.42671868  0.98101124    -0.84100
Zr13       Zr  0.20984017  0.36808493  0.96103118     2.26400
Zr14       Zr  0.05167930  0.27738422  0.94708832     2.06300
Zr15       Zr  0.16614218  0.42621026  0.99876291     2.10000
Zr16       Zr  0.08977596  0.25283276  0.99191862     1.78800
O17         O  0.23325146  0.53015790  0.00407046    -0.92900
O18         O  0.02620124  0.14878256  0.98562916    -0.40700
O19         O  0.17778751  0.34625029  0.98900474    -0.77300
O20         O  0.12358238  0.27271954  0.96395901    -0.96000
O21         O  0.13845313  0.37101003  0.94395039    -0.89300
O22         O  0.19946053  0.44803518  0.97115913    -0.92200
C23         C  0.97064413  0.22833615  0.01523240     1.01600
C24         C  0.05202466  0.45829307  0.00696705     1.14500
C25         C  0.91385829  0.26302212  0.95126848     1.05300
O26         O  0.01556744  0.17221991  0.94930578    -0.94300
O27         O  0.11570301  0.28275183  0.92484525    -0.90100
O28         O  0.21111391  0.33590921  0.93311363    -0.83200
C29         C  0.17121499  0.30611788  0.92243837     1.11900
O30         O  0.05987858  0.48613525  0.94844347    -0.96300
Zr31       Zr  0.12836746  0.45052467  0.95356399     1.88900
O32         O  0.27599020  0.45822383  0.94665219    -0.72900
O33         O  0.01612826  0.25198800  0.91893687    -0.52200
O34         O  0.11100293  0.45010159  0.92424303    -0.96900
O35         O  0.16293174  0.54993973  0.96366230    -0.54100
O36         O  0.22562832  0.50633888  0.94145832    -0.73500
C37         C  0.27173129  0.50128701  0.94081540     0.98900
O38         O  0.26563072  0.31651980  0.95931807    -0.62300
O39         O  0.16569106  0.40541227  0.02781840    -0.57100
O40         O  0.29419479  0.41058690  0.97875523    -0.93800
O41         O  0.26863373  0.44257075  0.00164989    -0.92200
O42         O  0.13563103  0.25417945  0.01795348    -0.92500
O43         O  0.14767713  0.20373271  0.99109933    -0.91300
C44         C  0.30517559  0.43378999  0.99300437     1.17700
H45         H  0.06747848  0.32864055  0.01314875     0.33700
H46         H  0.13136918  0.24253522  0.95998602     0.44500
H47         H  0.23620067  0.48490995  0.97134085     0.38000
H48         H  0.01074215  0.36188645  0.94937819     0.34500
H49         H  0.02605807  0.12794122  0.99574352     0.26300
H50         H  0.98021738  0.21266561  0.91941613     0.32300
H51         H  0.13740184  0.49117002  0.92064826     0.38200
H52         H  0.11131661  0.21397821  0.02243361     0.32600
H53         H  0.17121560  0.37076490  0.02819721     0.31500
H54         H  0.24715706  0.53160148  0.01541518     0.33200
H55         H  0.18520420  0.57609461  0.95443258     0.32100
H56         H  0.18897495  0.23614944  0.99026600     0.36100
H57         H  0.26724438  0.30421173  0.97066760     0.28900
H58         H  0.88778267  0.30130353  0.99311732     0.33100
H59         H  0.07948621  0.51835124  0.94036178     0.36000
H60         H  0.20317466  0.43818545  0.03204942     0.28600
H61         H  0.23946812  0.27908469  0.95358514     0.41400
H62         H  0.97221680  0.15410967  0.94988331     0.31500
H63         H  0.98593336  0.14298994  0.98501043     0.39100
H64         H  0.19334440  0.55659825  0.97189701     0.31000
H65         H  0.00231048  0.27945295  0.91571507     0.31000
H66         H  0.91205819  0.35951240  0.98276032     0.31300
Zr67       Zr  0.68164576  0.00458018  0.86847119     2.17500
O68         O  0.67895577  0.09120224  0.85856800    -0.51100
O69         O  0.75304587  0.04899883  0.84614595    -0.74300
O70         O  0.72405348  0.08752900  0.88745077    -0.81000
O71         O  0.54372732  0.90582685  0.84337743    -0.82800
O72         O  0.75409785  0.05813094  0.90973233    -0.78400
O73         O  0.59899968  0.99762610  0.85410104    -0.90100
O74         O  0.79772494  0.99547912  0.84129809    -0.76000
O75         O  0.76042307  0.99314957  0.87850936    -0.85500
O76         O  0.68107237  0.93086873  0.85112719    -0.85200
O77         O  0.65335188  0.97198948  0.89639509    -0.72000
O78         O  0.58673476  0.91754980  0.87126652    -0.84100
Zr79       Zr  0.64037518  0.79998016  0.89222095     2.26400
Zr80       Zr  0.73219903  0.95792603  0.90594801     2.06300
Zr81       Zr  0.58620034  0.84438458  0.85384056     2.10000
Zr82       Zr  0.75913331  0.91813130  0.86167268     1.78800
O83         O  0.48190024  0.77932942  0.84833606    -0.92900
O84         O  0.86330605  0.97887529  0.86838184    -0.40700
O85         O  0.66459124  0.83140517  0.86431326    -0.77300
O86         O  0.73666447  0.88487832  0.88960592    -0.96000
O87         O  0.63769160  0.87218341  0.90897880    -0.89300
O88         O  0.56163836  0.81101696  0.88140748    -0.92200
C89         C  0.78808886  0.03760514  0.83804734     1.01600
C90         C  0.55589218  0.95990040  0.84559946     1.14500
C91         C  0.74698348  0.09588707  0.90171916     1.05300
O92         O  0.83681685  0.99117202  0.90392151    -0.94300
O93         O  0.72374686  0.89396461  0.92853078    -0.90100
O94         O  0.67121877  0.79855744  0.92027612    -0.83200
C95         C  0.70033240  0.83850412  0.93099594     1.11900
O96         O  0.52171810  0.95049351  0.90189656    -0.96300
Zr97       Zr  0.55967171  0.88314734  0.89861514     1.88900
O98         O  0.54997757  0.73484715  0.90639465    -0.72900
O99         O  0.75916239  0.99369244  0.93398849    -0.52200
O100        O  0.56119991  0.90477587  0.92766820    -0.96900
O101        O  0.46013096  0.84797905  0.88853639    -0.54100
O102        O  0.50313326  0.78657235  0.91127599    -0.73500
C103        C  0.50734694  0.73999204  0.91210013     0.98900
O104        O  0.68831572  0.74094392  0.89431324    -0.62300
O105        O  0.60689209  0.84455724  0.82479509    -0.57100
O106        O  0.59803547  0.71583075  0.87447854    -0.93800
O107        O  0.56983735  0.74195063  0.85097765    -0.92200
O108        O  0.75634299  0.86844076  0.83623716    -0.92500
O109        O  0.80875889  0.86081035  0.86313721    -0.91300
C110        C  0.57709889  0.70517627  0.85996910     1.17700
H111        H  0.68604195  0.94183038  0.83971832     0.33700
H112        H  0.76601577  0.87640957  0.89389421     0.44500
H113        H  0.52447265  0.77455973  0.88121313     0.38000
H114        H  0.64870975  0.00012369  0.90287771     0.34500
H115        H  0.88432769  0.98017764  0.85818772     0.26300
H116        H  0.79863663  0.02934264  0.93335927     0.32300
H117        H  0.52106367  0.87667953  0.93162958     0.38200
H118        H  0.79451603  0.89467905  0.83085844     0.32600
H119        H  0.63746832  0.83298888  0.82434714     0.31500
H120        H  0.47866971  0.77763442  0.83625510     0.33200
H121        H  0.43386059  0.82080607  0.89708549     0.32100
H122        H  0.77702361  0.82027138  0.86561432     0.36100
H123        H  0.70067400  0.73851126  0.88302847     0.28900
H124        H  0.72038822  0.12362904  0.85819987     0.33100
H125        H  0.49367365  0.93485308  0.91115669     0.36000
H126        H  0.57123513  0.81027534  0.82025474     0.28600
H127        H  0.72585594  0.76621432  0.90010644     0.41400
H128        H  0.85619967  0.03466663  0.90391992     0.31500
H129        H  0.87000299  0.01933399  0.86957356     0.39100
H130        H  0.45583328  0.82216954  0.87917247     0.31000
H131        H  0.73215361  0.00793276  0.93733667     0.31000
H132        H  0.66027404  0.10250466  0.86729283     0.31300
Zr133      Zr  0.67675165  0.63379098  0.31861208     2.17500
O134        O  0.67049693  0.54139282  0.32709517    -0.51100
O135        O  0.74772477  0.65922539  0.34095424    -0.74300
O136        O  0.72021140  0.59436488  0.29952748    -0.81000
O137        O  0.53842486  0.59490645  0.34389111    -0.82800
O138        O  0.75261118  0.65580841  0.27770729    -0.78400
O139        O  0.59506013  0.55930694  0.33356110    -0.90100
O140        O  0.79392451  0.75743665  0.34598033    -0.76000
O141        O  0.75620163  0.72471285  0.30919778    -0.85500
O142        O  0.67584834  0.70610588  0.33628093    -0.85200
O143        O  0.64977881  0.63974483  0.29069442    -0.72000
O144        O  0.58192902  0.62623736  0.31582990    -0.84100
Zr145      Zr  0.63776429  0.79922290  0.29553368     2.26400
Zr146      Zr  0.72942068  0.73312555  0.28168013     2.06300
Zr147      Zr  0.58137507  0.69871586  0.33347849     2.10000
Zr148      Zr  0.75434518  0.79758049  0.32635038     1.78800
O149        O  0.47667570  0.66174840  0.33758694    -0.92900
O150        O  0.85890066  0.84444447  0.31987894    -0.40700
O151        O  0.66031213  0.79050639  0.32349736    -0.77300
O152        O  0.73360084  0.80979905  0.29836198    -0.96000
O153        O  0.63520616  0.72485296  0.27858165    -0.89300
O154        O  0.55845876  0.70909451  0.30590775    -0.92200
C155        C  0.78347600  0.70529986  0.34908350     1.01600
C156        C  0.55138840  0.55350444  0.34185981     1.14500
C157        C  0.74458931  0.61016088  0.28545668     1.05300
O158        O  0.83353006  0.80621485  0.28358265    -0.94300
O159        O  0.71988198  0.78800998  0.25911283    -0.90100
O160        O  0.66854150  0.83197352  0.26749978    -0.83200
C161        C  0.69698941  0.82055426  0.25670500     1.11900
O162        O  0.51944939  0.53146116  0.28297385    -0.96300
Zr163      Zr  0.55635027  0.63552113  0.28845727     1.88900
O164        O  0.54742915  0.77530284  0.28154307    -0.72900
O165        O  0.75835286  0.72600514  0.25371439    -0.52200
O166        O  0.55648053  0.61736885  0.25921886    -0.96900
O167        O  0.45765280  0.57243924  0.29933757    -0.54100
O168        O  0.50077449  0.67705199  0.27612002    -0.73500
C169        C  0.50492099  0.72784216  0.27563875     0.98900
O170        O  0.68831248  0.90637162  0.29400766    -0.62300
O171        O  0.59880596  0.71667203  0.36273587    -0.57100
O172        O  0.59546731  0.84099252  0.31328835    -0.93800
O173        O  0.56662511  0.78578215  0.33663901    -0.92200
O174        O  0.74828299  0.83791296  0.35267540    -0.92500
O175        O  0.80122676  0.90457359  0.32613772    -0.91300
C176        C  0.57439673  0.83032009  0.32778493     1.17700
H177        H  0.68057932  0.69941897  0.34765553     0.33700
H178        H  0.76326292  0.84783790  0.29428480     0.44500
H179        H  0.52141590  0.70861581  0.30611227     0.38000
H180        H  0.64558741  0.60743193  0.28406919     0.34500
H181        H  0.87925752  0.86316128  0.33023885     0.26300
H182        H  0.79730517  0.72868261  0.25448347     0.32300
H183        H  0.51584303  0.60438064  0.25551575     0.38200
H184        H  0.78777262  0.85347532  0.35763104     0.32600
H185        H  0.63080118  0.75817456  0.36352727     0.31500
H186        H  0.47057472  0.65480624  0.34951533     0.33200
H187        H  0.43078118  0.57465776  0.29122940     0.32100
H188        H  0.76828505  0.91269087  0.32692531     0.36100
H189        H  0.70332513  0.91995297  0.30521462     0.28900
H190        H  0.71143389  0.54891148  0.32751264     0.33100
H191        H  0.48455837  0.51863550  0.27585678     0.36000
H192        H  0.56353641  0.71702095  0.36689674     0.28600
H193        H  0.72428737  0.91797138  0.28748387     0.41400
H194        H  0.85349506  0.78282788  0.28468083     0.31500
H195        H  0.86667921  0.81152573  0.31829434     0.39100
H196        H  0.45515792  0.59378671  0.30901556     0.31000
H197        H  0.73081185  0.68528925  0.25003676     0.31000
H198        H  0.65146779  0.51303582  0.31801078     0.31300
Zr199      Zr  0.00536723  0.63330754  0.20274988     2.17500
O200        O  0.92044783  0.54037170  0.19401360    -0.51100
O201        O  0.96063119  0.65831050  0.18014965    -0.74300
O202        O  0.92071903  0.59593605  0.22109863    -0.81000
O203        O  0.10563234  0.59241391  0.17853280    -0.82800
O204        O  0.94926829  0.65773485  0.24285682    -0.78400
O205        O  0.01316975  0.55750845  0.18861815    -0.90100
O206        O  0.01603910  0.75555453  0.17419690    -0.76000
O207        O  0.01717979  0.72489827  0.21164205    -0.85500
O208        O  0.08007408  0.70437765  0.18516744    -0.85200
O209        O  0.03599870  0.64022989  0.23095503    -0.72000
O210        O  0.09184504  0.62499833  0.20635535    -0.84100
Zr211      Zr  0.20906373  0.79854199  0.22635781     2.26400
Zr212      Zr  0.05040490  0.73447026  0.23936764     2.06300
Zr213      Zr  0.16652595  0.69626392  0.18885629     2.10000
Zr214      Zr  0.09314995  0.79653093  0.19460108     1.78800
O215        O  0.23241140  0.65687292  0.18507643    -0.92900
O216        O  0.03189685  0.84078367  0.19934438    -0.40700
O217        O  0.17952425  0.78878163  0.19821908    -0.77300
O218        O  0.12454121  0.80995178  0.22275735    -0.96000
O219        O  0.13551785  0.72522586  0.24321718    -0.89300
O220        O  0.19792998  0.70738193  0.21666810    -0.92200
C221        C  0.97292697  0.70381502  0.17148816     1.01600
C222        C  0.05117270  0.55120070  0.18052617     1.14500
C223        C  0.91163594  0.61224968  0.23502756     1.05300
O224        O  0.02110553  0.80848428  0.23611122    -0.94300
O225        O  0.11350528  0.78936896  0.26217771    -0.90100
O226        O  0.20910676  0.83327958  0.25401666    -0.83200
C227        C  0.16888689  0.82226343  0.26465598     1.11900
O228        O  0.05501576  0.53109153  0.23922306    -0.96300
Zr229      Zr  0.12438683  0.63486456  0.23396926     1.88900
O230        O  0.27280171  0.77408350  0.24160627    -0.72900
O231        O  0.01103789  0.72949816  0.26681154    -0.52200
O232        O  0.10465437  0.61654275  0.26314109    -0.96900
O233        O  0.15899827  0.56969223  0.22411258    -0.54100
O234        O  0.22006237  0.67594291  0.24710377    -0.73500
C235        C  0.26674788  0.72662961  0.24784654     0.98900
O236        O  0.26667235  0.90579987  0.22765435    -0.62300
O237        O  0.16959648  0.71488378  0.15958587    -0.57100
O238        O  0.29421118  0.83929296  0.20890200    -0.93800
O239        O  0.26935351  0.78175547  0.18602411    -0.92200
O240        O  0.14558236  0.83996822  0.16920412    -0.88900
O241        O  0.14965611  0.90364839  0.19538308    -0.91300
C242        C  0.30567767  0.82703982  0.19471569     1.17700
H243        H  0.06926660  0.69708669  0.17375654     0.33700
H244        H  0.13310234  0.84829691  0.22661148     0.44500
H245        H  0.23424752  0.70641298  0.21687913     0.38000
H246        H  0.00711456  0.60833028  0.23754351     0.34500
H247        H  0.03106834  0.85843865  0.18870930     0.26300
H248        H  0.97580415  0.73370316  0.26542280     0.32300
H249        H  0.13125257  0.60235453  0.26692306     0.38200
H250        H  0.11847540  0.84801577  0.16272965     0.32600
H251        H  0.17489705  0.75490424  0.15879749     0.31500
H252        H  0.24544725  0.66572275  0.17354181     0.33200
H253        H  0.19404721  0.57920747  0.23083766     0.32100
H254        H  0.19060987  0.91315272  0.19755355     0.36100
H255        H  0.26918540  0.91926514  0.21621275     0.28900
H256        H  0.88727620  0.54801297  0.19283747     0.33100
H257        H  0.07651497  0.51690630  0.24608531     0.36000
H258        H  0.20769656  0.71965138  0.15590351     0.28600
H259        H  0.24077456  0.91808536  0.23307089     0.41400
H260        H  0.97762884  0.78558349  0.23532451     0.31500
H261        H  0.99141254  0.80716846  0.20067913     0.39100
H262        H  0.17492814  0.58463805  0.21306316     0.31000
H263        H  0.99590047  0.68866680  0.27070510     0.31000
H264        H  0.90963375  0.51283907  0.20336699     0.31300
Zr265      Zr  0.66207684  0.97445615  0.15121683     2.17500
O266        O  0.56800942  0.88880036  0.15895591    -0.51100
O267        O  0.68459836  0.92844766  0.17397531    -0.74300
O268        O  0.62462999  0.89133302  0.13234143    -0.81000
O269        O  0.62395973  0.07358660  0.17673414    -0.82800
O270        O  0.68624599  0.92073985  0.11054486    -0.78400
O271        O  0.58709977  0.98204572  0.16576709    -0.90100
O272        O  0.78265617  0.97980159  0.17928123    -0.76000
O273        O  0.75312265  0.98520486  0.14215030    -0.85500
O274        O  0.73386939  0.04729242  0.16907418    -0.85200
O275        O  0.66997439  0.00742794  0.12324674    -0.72000
O276        O  0.65544961  0.06212539  0.14832243    -0.84100
Zr277      Zr  0.83003591  0.17890765  0.12857018     2.26400
Zr278      Zr  0.76383249  0.02118142  0.11467866     2.06300
Zr279      Zr  0.72757146  0.13489181  0.16612578     2.10000
Zr280      Zr  0.82536589  0.05928668  0.15951181     1.78800
O281        O  0.68820475  0.20055179  0.17040632    -0.92900
O282        O  0.87112929  0.99978310  0.15417473    -0.40700
O283        O  0.81948051  0.14693790  0.15652410    -0.77300
O284        O  0.83994788  0.09329383  0.13157374    -0.96000
O285        O  0.75609879  0.10735439  0.11143754    -0.89300
O286        O  0.73934995  0.16822333  0.13851707    -0.92200
C287        C  0.73015688  0.93857332  0.18231070     1.01600
C288        C  0.58200819  0.01960645  0.17442917     1.14500
C289        C  0.64066275  0.88289754  0.11830120     1.05300
O290        O  0.83662650  0.99022497  0.11773173    -0.94300
O291        O  0.81868313  0.08527193  0.09199154    -0.90100
O292        O  0.86401929  0.18033473  0.10064285    -0.83200
C293        C  0.85210591  0.14070245  0.08971541     1.11900
O294        O  0.56199781  0.02824551  0.11581059    -0.96300
Zr295      Zr  0.66615375  0.09670696  0.12090600     1.88900
O296        O  0.80655325  0.24456768  0.11398309    -0.72900
O297        O  0.76011591  0.98426061  0.08701459    -0.52200
O298        O  0.64890050  0.07850518  0.09162828    -0.96900
O299        O  0.60208656  0.13231680  0.13096804    -0.54100
O300        O  0.70829717  0.19348181  0.10846554    -0.73500
C301        C  0.75937146  0.23970609  0.10789263     0.98900
O302        O  0.93730217  0.23685488  0.12725045    -0.62300
O303        O  0.74865198  0.13712802  0.19521999    -0.57100
O304        O  0.87165409  0.26280586  0.14648355    -0.93800
O305        O  0.81375337  0.23741669  0.16929210    -0.92200
O306        O  0.86616111  0.10609723  0.18572058    -0.92500
O307        O  0.93242270  0.11736979  0.15893509    -0.91300
C308        C  0.85942744  0.27382311  0.16072549     1.17700
H309        H  0.72655789  0.03601740  0.18045020     0.33700
H310        H  0.87816680  0.10159427  0.12767628     0.44500
H311        H  0.73905371  0.20487973  0.13860421     0.38000
H312        H  0.63799093  0.97933044  0.11652141     0.34500
H313        H  0.88657651  0.99631803  0.16492150     0.26300
H314        H  0.76330467  0.94839233  0.08821035     0.32300
H315        H  0.63565032  0.10588507  0.08787935     0.38200
H316        H  0.88214315  0.08243617  0.19059913     0.32600
H317        H  0.79096244  0.14933302  0.19568241     0.31500
H318        H  0.67742666  0.19624325  0.18213982     0.33200
H319        H  0.59992109  0.15619741  0.12190283     0.32100
H320        H  0.94119530  0.15832870  0.15724818     0.36100
H321        H  0.95096719  0.23707395  0.13855658     0.28900
H322        H  0.57493468  0.85506486  0.15974254     0.33100
H323        H  0.54868494  0.04911606  0.10839203     0.36000
H324        H  0.74683184  0.17150280  0.19948874     0.28600
H325        H  0.94956541  0.21221297  0.12112179     0.41400
H326        H  0.81304797  0.94707849  0.11930679     0.31500
H327        H  0.83795332  0.95972384  0.15193472     0.39100
H328        H  0.62539350  0.16137532  0.13954709     0.31000
H329        H  0.71966759  0.97029909  0.08295264     0.31000
H330        H  0.54097880  0.87974057  0.14954440     0.31300
Zr331      Zr  0.66242366  0.64496579  0.03579996     2.17500
O332        O  0.57003911  0.63901056  0.02742259    -0.51100
O333        O  0.68592427  0.71469754  0.01328371    -0.74300
O334        O  0.62407367  0.68923708  0.05488090    -0.81000
O335        O  0.62464404  0.50864879  0.01008005    -0.82800
O336        O  0.68685662  0.72391755  0.07641182    -0.78400
O337        O  0.58716614  0.56218413  0.02145848    -0.90100
O338        O  0.78406567  0.76113792  0.00818659    -0.76000
O339        O  0.75295283  0.72454238  0.04530552    -0.85500
O340        O  0.73460636  0.64459310  0.01798192    -0.85200
O341        O  0.66900946  0.61827052  0.06367248    -0.72000
O342        O  0.65585983  0.55057059  0.03844828    -0.84100
Zr343      Zr  0.82933684  0.60721224  0.05858667     2.26400
Zr344      Zr  0.76216398  0.69773955  0.07274197     2.06300
Zr345      Zr  0.72826330  0.55064461  0.02064979     2.10000
Zr346      Zr  0.82564806  0.72343585  0.02799030     1.78800
O347        O  0.68991649  0.44585513  0.01621420    -0.92900
O348        O  0.86903845  0.82742894  0.03471566    -0.40700
O349        O  0.81990809  0.62989076  0.03066480    -0.77300
O350        O  0.83882901  0.70257156  0.05588847    -0.96000
O351        O  0.75492480  0.60392633  0.07566852    -0.89300
O352        O  0.73904644  0.52781505  0.04822653    -0.92200
C353        C  0.73178224  0.75032657  0.00508738     1.01600
C354        C  0.58237472  0.52005403  0.01261369     1.14500
C355        C  0.64063517  0.71488803  0.06876579     1.05300
O356        O  0.83333932  0.80251241  0.07151040    -0.94300
O357        O  0.82155856  0.69366828  0.09487501    -0.90100
O358        O  0.86305933  0.63988922  0.08656395    -0.83200
C359        C  0.85352210  0.67013664  0.09724489     1.11900
O360        O  0.56125750  0.48931239  0.07085323    -0.96300
Zr361      Zr  0.66542865  0.52520744  0.06581616     1.88900
O362        O  0.80564393  0.51750242  0.07285452    -0.72900
O363        O  0.74629947  0.71454481  0.10123879    -0.52200
O364        O  0.64852370  0.52681567  0.09508241    -0.96900
O365        O  0.60184258  0.42515023  0.05592881    -0.54100
O366        O  0.70726372  0.47009041  0.07816203    -0.73500
C367        C  0.75831710  0.47489622  0.07876941     0.98900
O368        O  0.93655091  0.65735122  0.06019380    -0.62300
O369        O  0.74810831  0.57031872  0.99150313    -0.57100
O370        O  0.87080945  0.56476713  0.04065499    -0.93800
O371        O  0.81489463  0.53515850  0.01742740    -0.92200
O372        O  0.86809701  0.72026494  0.00177266    -0.92500
O373        O  0.93273445  0.77305263  0.02834825    -0.91300
C374        C  0.85967427  0.54311401  0.02621139     1.17700
H375        H  0.72768263  0.64910597  0.00661161     0.33700
H376        H  0.87682034  0.73248867  0.05993001     0.44500
H377        H  0.73877432  0.49087782  0.04804129     0.38000
H378        H  0.63691807  0.61443788  0.07033932     0.34500
H379        H  0.88933403  0.84844253  0.02457843     0.26300
H380        H  0.75161568  0.75464666  0.10169987     0.32300
H381        H  0.63380027  0.48588334  0.09880811     0.38200
H382        H  0.88168257  0.75944813  0.99683377     0.32600
H383        H  0.79155294  0.59402383  0.99074104     0.31500
H384        H  0.69386787  0.44192596  0.00430060     0.33200
H385        H  0.60090780  0.39934193  0.06490162     0.32100
H386        H  0.94191598  0.74086855  0.02925909     0.36100
H387        H  0.95041014  0.66932612  0.04882253     0.28900
H388        H  0.57774172  0.67999586  0.02695467     0.33100
H389        H  0.54848302  0.45635457  0.07869019     0.36000
H390        H  0.73807155  0.53186200  0.98663159     0.28600
H391        H  0.94834096  0.69500401  0.06586154     0.41400
H392        H  0.80906108  0.82158778  0.07061246     0.31500
H393        H  0.83526218  0.83420149  0.03570496     0.39100
H394        H  0.62473941  0.41985702  0.04713216     0.31000
H395        H  0.70400133  0.68749672  0.10349554     0.31000
H396        H  0.54190596  0.62033787  0.03656871     0.31300
Zr397      Zr  0.36737411  0.34890780  0.81811139     2.17500
O398        O  0.37195826  0.44011531  0.82708747    -0.51100
O399        O  0.29655030  0.32378571  0.84042189    -0.74300
O400        O  0.32477717  0.38880746  0.79902104    -0.81000
O401        O  0.50463692  0.38606016  0.84363377    -0.82800
O402        O  0.29075726  0.32701247  0.77725312    -0.78400
O403        O  0.45081277  0.42359840  0.83250585    -0.90100
O404        O  0.24864473  0.22517818  0.84479681    -0.76000
O405        O  0.28811521  0.25882367  0.80818232    -0.85500
O406        O  0.36690695  0.27567856  0.83565401    -0.85200
O407        O  0.39447932  0.34347353  0.79017013    -0.72000
O408        O  0.46179875  0.35567339  0.81553955    -0.84100
Zr409      Zr  0.40547446  0.18305054  0.79475972     2.26400
Zr410      Zr  0.31540920  0.25058827  0.78070953     2.06300
Zr411      Zr  0.46114561  0.28235054  0.83299599     2.10000
Zr412      Zr  0.28833402  0.18506762  0.82521374     1.78800
O413        O  0.56522628  0.32077991  0.83874941    -0.92900
O414        O  0.18446831  0.14059255  0.81814548    -0.40700
O415        O  0.38210857  0.19106141  0.82268706    -0.77300
O416        O  0.30978050  0.17301022  0.79728518    -0.96000
O417        O  0.40944344  0.25847058  0.77799704    -0.89300
O418        O  0.48463147  0.27297943  0.80539507    -0.92200
C419        C  0.25984349  0.27732536  0.84821572     1.01600
C420        C  0.49324450  0.42839055  0.84122515     1.14500
C421        C  0.29976830  0.37297390  0.78503724     1.05300
O422        O  0.21052169  0.17958038  0.78169808    -0.94300
O423        O  0.32302057  0.19404639  0.75820810    -0.90100
O424        O  0.37531910  0.15108968  0.76661625    -0.83200
C425        C  0.34657552  0.16205907  0.75580228     1.11900
O426        O  0.52426130  0.45285970  0.78495535    -0.96300
Zr427      Zr  0.48776047  0.34771462  0.78817130     1.88900
O428        O  0.49565673  0.20814374  0.78054437    -0.72900
O429        O  0.29663573  0.26554441  0.75232986    -0.52200
O430        O  0.48806213  0.36886184  0.75913302    -0.96900
O431        O  0.58811104  0.41010823  0.79802413    -0.54100
O432        O  0.54238604  0.30655408  0.77529658    -0.73500
C433        C  0.53796088  0.25571577  0.77463546     0.98900
O434        O  0.35479384  0.07581821  0.79289646    -0.62300
O435        O  0.43677430  0.25910308  0.86177618    -0.57100
O436        O  0.44805025  0.14101879  0.81238395    -0.93800
O437        O  0.47870168  0.19685358  0.83560559    -0.92200
O438        O  0.29120693  0.14047185  0.85108259    -0.92500
O439        O  0.23686138  0.07796464  0.82488830    -0.91300
C440        C  0.47053114  0.15222020  0.82672251     1.17700
H441        H  0.36177991  0.28195409  0.84703203     0.33700
H442        H  0.27997738  0.13522049  0.79309571     0.44500
H443        H  0.52162038  0.27333322  0.80556059     0.38000
H444        H  0.39888070  0.37595071  0.78358932     0.34500
H445        H  0.16316845  0.12294334  0.82847423     0.26300
H446        H  0.25714052  0.26178221  0.75215396     0.32300
H447        H  0.52912518  0.38354093  0.75552530     0.38200
H448        H  0.25212763  0.12689850  0.85609985     0.32600
H449        H  0.41495788  0.21554814  0.86217469     0.31500
H450        H  0.56600561  0.30161756  0.84910728     0.33200
H451        H  0.61370642  0.41145396  0.78893258     0.32100
H452        H  0.26651717  0.06803305  0.82095410     0.36100
H453        H  0.34253815  0.06160648  0.80422874     0.28900
H454        H  0.33090494  0.43232407  0.82718011     0.33100
H455        H  0.55535892  0.46654471  0.77648651     0.36000
H456        H  0.47485899  0.27069182  0.86715642     0.28600
H457        H  0.31731874  0.06438369  0.78716765     0.41400
H458        H  0.19132234  0.20370971  0.78067672     0.31500
H459        H  0.17799738  0.17415918  0.81615835     0.39100
H460        H  0.59335555  0.38657121  0.80663140     0.31000
H461        H  0.32463197  0.30743348  0.74984649     0.31000
H462        H  0.39182842  0.46933776  0.81824850     0.31300
Zr463      Zr  0.04093924  0.35486053  0.70309417     2.17500
O464        O  0.12646839  0.44842553  0.69503811    -0.51100
O465        O  0.08681234  0.33123032  0.68046632    -0.74300
O466        O  0.12415726  0.39242440  0.72186430    -0.81000
O467        O  0.94215107  0.39362902  0.67798062    -0.82800
O468        O  0.09787461  0.32836316  0.74306019    -0.78400
O469        O  0.03389290  0.43046419  0.68878268    -0.90100
O470        O  0.03447274  0.23319604  0.67520047    -0.76000
O471        O  0.03004021  0.26437468  0.71258745    -0.85500
O472        O  0.96810988  0.28266825  0.68535254    -0.85200
O473        O  0.00862769  0.34819114  0.73106467    -0.72000
O474        O  0.95352291  0.36192310  0.70618113    -0.84100
Zr475      Zr  0.83730072  0.18744925  0.72620170     2.26400
Zr476      Zr  0.99531455  0.25539487  0.74018948     2.06300
Zr477      Zr  0.88100908  0.28964542  0.68840569     2.10000
Zr478      Zr  0.95628820  0.19161593  0.69530471     1.78800
O479        O  0.81395158  0.32708310  0.68374283    -0.92900
O480        O  0.01910915  0.15064670  0.70195420    -0.40700
O481        O  0.86887659  0.19786071  0.69820901    -0.77300
O482        O  0.92352171  0.17869558  0.72329376    -0.96000
O483        O  0.90830968  0.26163877  0.74334657    -0.89300
O484        O  0.84778891  0.27784245  0.71605727    -0.92200
C485        C  0.07613712  0.28542619  0.67215340     1.01600
C486        C  0.99612738  0.43566334  0.68025904     1.14500
C487        C  0.13440303  0.37493573  0.73542424     1.05300
O488        O  0.03498069  0.18915483  0.74154589    -0.94300
O489        O  0.93310838  0.18932858  0.76151003    -0.90100
O490        O  0.83755382  0.15284863  0.75395251    -0.83200
C491        C  0.87759725  0.15917259  0.76415823     1.11900
O492        O  0.98612100  0.45518488  0.73932187    -0.96300
Zr493      Zr  0.91899987  0.35126667  0.73365138     1.88900
O494        O  0.77174455  0.21091306  0.74089544    -0.72900
O495        O  0.02348080  0.28477066  0.76861195    -0.52200
O496        O  0.93671080  0.36587397  0.76301463    -0.96900
O497        O  0.88327667  0.41565297  0.72401473    -0.54100
O498        O  0.82192286  0.30957104  0.74580790    -0.73500
C499        C  0.77610789  0.25831834  0.74664484     0.98900
O500        O  0.78017368  0.08009455  0.72768233    -0.62300
O501        O  0.88045221  0.26988922  0.65924982    -0.57100
O502        O  0.75332112  0.14635707  0.70832169    -0.93800
O503        O  0.77868088  0.20351653  0.68534979    -0.92200
O504        O  0.90911389  0.14614054  0.66945695    -0.92500
O505        O  0.89868722  0.08457798  0.69637077    -0.91300
C506        C  0.74228076  0.15826798  0.69404050     1.17700
H507        H  0.97923394  0.28965061  0.67396156     0.33700
H508        H  0.91589663  0.14083076  0.72730980     0.44500
H509        H  0.81101783  0.27792118  0.71595485     0.38000
H510        H  0.03735375  0.38020792  0.73767068     0.34500
H511        H  0.01980761  0.13011783  0.69186128     0.26300
H512        H  0.05739866  0.27899374  0.77078719     0.32300
H513        H  0.90866215  0.37794222  0.76699943     0.38200
H514        H  0.93274263  0.12939563  0.66502382     0.32600
H515        H  0.86807939  0.22756139  0.65866022     0.31500
H516        H  0.81557420  0.33406693  0.67180026     0.33200
H517        H  0.86239406  0.42020539  0.73349971     0.32100
H518        H  0.85798762  0.07570864  0.69862474     0.36100
H519        H  0.77792153  0.06628548  0.71628953     0.28900
H520        H  0.16013972  0.44137424  0.69431407     0.33100
H521        H  0.96593668  0.46662985  0.74754287     0.36000
H522        H  0.84651453  0.27216503  0.65482292     0.28600
H523        H  0.80605089  0.06809650  0.73324778     0.41400
H524        H  0.07494968  0.21193947  0.73679833     0.31500
H525        H  0.05939023  0.18499947  0.70276562     0.39100
H526        H  0.85164594  0.39139201  0.71612940     0.31000
H527        H  0.03983839  0.32793171  0.76887268     0.31000
H528        H  0.13570402  0.47581119  0.70437022     0.31300
Zr529      Zr  0.03781481  0.64617735  0.48431557     2.17500
O530        O  0.12290193  0.63774960  0.49263312    -0.51100
O531        O  0.08487485  0.71714239  0.50660658    -0.74300
O532        O  0.12049781  0.68940392  0.46520590    -0.81000
O533        O  0.93799869  0.51011623  0.51027179    -0.82800
O534        O  0.09126477  0.72199291  0.44344836    -0.78400
O535        O  0.02902338  0.56318834  0.49888370    -0.90100
O536        O  0.03218889  0.76210064  0.51237676    -0.76000
O537        O  0.02745048  0.72627289  0.47494802    -0.85500
O538        O  0.96577100  0.64660269  0.50218750    -0.85200
O539        O  0.00442155  0.61994094  0.45639622    -0.72000
O540        O  0.94950127  0.55211044  0.48177993    -0.84100
Zr541      Zr  0.83331506  0.60931593  0.46172087     2.26400
Zr542      Zr  0.99112507  0.69997094  0.44754021     2.06300
Zr543      Zr  0.87761282  0.55306717  0.49960050     2.10000
Zr544      Zr  0.95397894  0.72583198  0.49226222     1.78800
O545        O  0.81162119  0.44897988  0.50510959    -0.92900
O546        O  0.01702265  0.82994229  0.48596940    -0.40700
O547        O  0.86562646  0.63251768  0.48962662    -0.77300
O548        O  0.91939409  0.70478676  0.46440448    -0.96000
O549        O  0.90448422  0.60602525  0.44456768    -0.89300
O550        O  0.84402531  0.52978989  0.47203690    -0.92200
C551        C  0.07434292  0.75198380  0.51511953     1.01600
C552        C  0.99151880  0.52120324  0.50773668     1.14500
C553        C  0.12892357  0.71382367  0.45114757     1.05300
O554        O  0.02540686  0.80472491  0.44996866    -0.94300
O555        O  0.92641741  0.69254163  0.42526444    -0.90100
O556        O  0.83126368  0.64163839  0.43383352    -0.83200
C557        C  0.87096698  0.67036427  0.42300824     1.11900
O558        O  0.98315222  0.49025220  0.45035840    -0.96300
Zr559      Zr  0.91491546  0.52692733  0.45439273     1.88900
O560        O  0.76693974  0.51911126  0.44758578    -0.72900
O561        O  0.02670178  0.72873890  0.41953756    -0.52200
O562        O  0.93409102  0.52622271  0.42522831    -0.96900
O563        O  0.87830125  0.42647328  0.46391055    -0.54100
O564        O  0.81796722  0.47192256  0.44208588    -0.73500
C565        C  0.77158278  0.47648146  0.44163032     0.98900
O566        O  0.77572984  0.65902540  0.46031403    -0.62300
O567        O  0.87751823  0.57587044  0.52850298    -0.57100
O568        O  0.74950832  0.56743338  0.47966038    -0.93800
O569        O  0.77504923  0.53623238  0.50268753    -0.92200
O570        O  0.90753052  0.72347097  0.51826693    -0.92500
O571        O  0.89862922  0.77754667  0.49107799    -0.91300
C572        C  0.73858524  0.54493996  0.49398920     1.17700
H573        H  0.97738101  0.65096126  0.51354131     0.33700
H574        H  0.91129812  0.73468208  0.46036707     0.44500
H575        H  0.80733898  0.49286249  0.47227093     0.38000
H576        H  0.03218274  0.61544781  0.44969076     0.34500
H577        H  0.01735390  0.85079647  0.49610462     0.26300
H578        H  0.06307047  0.76761902  0.42030071     0.32300
H579        H  0.90643538  0.48549228  0.42159520     0.38200
H580        H  0.93187302  0.76346488  0.52288333     0.32600
H581        H  0.85775390  0.59960677  0.52888729     0.31500
H582        H  0.81448545  0.44476060  0.51706115     0.33200
H583        H  0.85837925  0.40132396  0.45429462     0.32100
H584        H  0.85729265  0.74613274  0.48940220     0.36100
H585        H  0.77392250  0.67099139  0.47169464     0.28900
H586        H  0.15673804  0.67841999  0.49320190     0.33100
H587        H  0.96539410  0.45962231  0.44176861     0.36000
H588        H  0.84901534  0.53792176  0.53360733     0.28600
H589        H  0.80133848  0.69672278  0.45464020     0.41400
H590        H  0.06873313  0.82344539  0.45092664     0.31500
H591        H  0.05733865  0.83591147  0.48525477     0.39100
H592        H  0.84591699  0.41879067  0.47154332     0.31000
H593        H  0.03975539  0.70113550  0.41583610     0.31000
H594        H  0.13190164  0.61896259  0.48341863     0.31300
Zr595      Zr  0.36449659  0.97746351  0.36909720     2.17500
O596        O  0.37128694  0.89222943  0.36000385    -0.51100
O597        O  0.29461073  0.93274713  0.34654930    -0.74300
O598        O  0.31991399  0.89345031  0.38765036    -0.81000
O599        O  0.50455267  0.07819520  0.34461270    -0.82800
O600        O  0.28675774  0.92111706  0.40961797    -0.78400
O601        O  0.44803639  0.98583985  0.35483965    -0.90100
O602        O  0.24906114  0.98547108  0.34168498    -0.76000
O603        O  0.28470539  0.98847601  0.37852226    -0.85500
O604        O  0.36621265  0.05167247  0.35170177    -0.85200
O605        O  0.38979545  0.00810574  0.39724485    -0.72000
O606        O  0.45906442  0.06426157  0.37239056    -0.84100
Zr607      Zr  0.40325096  0.18077349  0.39301115     2.26400
Zr608      Zr  0.31024758  0.02209900  0.40619186     2.06300
Zr609      Zr  0.46081377  0.13827204  0.35502981     2.10000
Zr610      Zr  0.28731326  0.06409297  0.36167626     1.78800
O611        O  0.56592542  0.20342329  0.35085589    -0.92900
O612        O  0.18240689  0.00469537  0.36766283    -0.40700
O613        O  0.38156458  0.15078084  0.36492561    -0.77300
O614        O  0.30728597  0.09579767  0.38978750    -0.96000
O615        O  0.40454369  0.10762651  0.40969218    -0.89300
O616        O  0.48265315  0.16974913  0.38279285    -0.92200
C617        C  0.25928662  0.94370968  0.33845864     1.01600
C618        C  0.49197178  0.02398872  0.34667377     1.14500
C619        C  0.29489422  0.88391505  0.40163849     1.05300
O620        O  0.20644018  0.99186463  0.40381774    -0.94300
O621        O  0.32030634  0.08579712  0.42904127    -0.90100
O622        O  0.37123941  0.18147270  0.42093846    -0.83200
C623        C  0.34290348  0.14112804  0.43160945     1.11900
O624        O  0.52034477  0.02842910  0.40308665    -0.96300
Zr625      Zr  0.48330865  0.09664755  0.39995249     1.88900
O626        O  0.49274503  0.24425013  0.40789113    -0.72900
O627        O  0.27791506  0.98396373  0.43382279    -0.52200
O628        O  0.47926231  0.07253445  0.42889400    -0.96900
O629        O  0.58435604  0.13394151  0.39086038    -0.54100
O630        O  0.53830625  0.19159145  0.41332947    -0.73500
C631        C  0.53434810  0.23827262  0.41404859     0.98900
O632        O  0.35297384  0.23769953  0.39497444    -0.62300
O633        O  0.44294988  0.14095836  0.32588258    -0.57100
O634        O  0.44607056  0.26563461  0.37542364    -0.93800
O635        O  0.47812027  0.24104689  0.35237475    -0.92200
O636        O  0.29154477  0.11027477  0.33546103    -0.92500
O637        O  0.24092347  0.12463430  0.36265986    -0.91300
C638        C  0.46913993  0.27715101  0.36115265     1.17700
H639        H  0.36190518  0.04090129  0.34027810     0.33700
H640        H  0.27758323  0.10412063  0.39386687     0.44500
H641        H  0.51984053  0.20618935  0.38289249     0.38000
H642        H  0.39362176  0.97954286  0.40375631     0.34500
H643        H  0.16244782  0.00684782  0.35761844     0.26300
H644        H  0.23854979  0.94847617  0.43262645     0.32300
H645        H  0.51926818  0.09972485  0.43312222     0.38200
H646        H  0.25062620  0.08906448  0.33128095     0.32600
H647        H  0.42411042  0.16547531  0.32505669     0.31500
H648        H  0.56887268  0.22520497  0.34068107     0.33200
H649        H  0.60908229  0.15489573  0.40045351     0.32100
H650        H  0.27415255  0.16566505  0.36270033     0.36100
H651        H  0.34111600  0.24018332  0.38363289     0.28900
H652        H  0.33034961  0.85896701  0.35924894     0.33100
H653        H  0.54906376  0.04417567  0.41219521     0.36000
H654        H  0.48255551  0.16556272  0.32106965     0.28600
H655        H  0.31523763  0.21155969  0.40056965     0.41400
H656        H  0.18636190  0.94861087  0.40242483     0.31500
H657        H  0.17423376  0.96354200  0.36793634     0.39100
H658        H  0.59182792  0.16550695  0.38295020     0.31000
H659        H  0.30412358  0.96925517  0.43757763     0.31000
H660        H  0.38943191  0.88183890  0.36908920     0.31300
Zr661      Zr  0.38687734  0.00972713  0.65035366     2.17500
O662        O  0.48123070  0.09440980  0.65833896    -0.51100
O663        O  0.36362190  0.05691079  0.67272528    -0.74300
O664        O  0.42607536  0.09226979  0.63134479    -0.81000
O665        O  0.42426303  0.91112915  0.67621380    -0.82800
O666        O  0.36348874  0.06369681  0.60976948    -0.78400
O667        O  0.46152369  0.00250335  0.66514712    -0.90100
O668        O  0.26579262  0.00469539  0.67832009    -0.76000
O669        O  0.29632882  0.99940590  0.64097682    -0.85500
O670        O  0.31448217  0.93783427  0.66823113    -0.85200
O671        O  0.37959096  0.97608904  0.62247094    -0.72000
O672        O  0.39325140  0.92180791  0.64778550    -0.84100
Zr673      Zr  0.21871214  0.80566888  0.62782867     2.26400
Zr674      Zr  0.28640920  0.96303262  0.61355878     2.06300
Zr675      Zr  0.32053768  0.85016610  0.66565294     2.10000
Zr676      Zr  0.22334751  0.92601915  0.65835775     1.78800
O677        O  0.35749678  0.78297620  0.67080398    -0.92900
O678        O  0.17999733  0.98725335  0.65238370    -0.40700
O679        O  0.22888595  0.83812240  0.65574547    -0.77300
O680        O  0.20962036  0.89182239  0.63045872    -0.96000
O681        O  0.29332755  0.87628785  0.61067831    -0.89300
O682        O  0.30883588  0.81593599  0.63811280    -0.92200
C683        C  0.31817436  0.04641875  0.68119226     1.01600
C684        C  0.46635264  0.96502806  0.67390400     1.14500
C685        C  0.40960963  0.10102892  0.61742223     1.05300
O686        O  0.21400950  0.99483890  0.61566775    -0.94300
O687        O  0.23026949  0.89881775  0.59106483    -0.90100
O688        O  0.18541775  0.80388656  0.59981512    -0.83200
C689        C  0.19706481  0.84333033  0.58886131     1.11900
O690        O  0.48677897  0.95408276  0.61510714    -0.96300
Zr691      Zr  0.38266315  0.88631704  0.62045484     1.88900
O692        O  0.24156696  0.73899865  0.61355897    -0.72900
O693        O  0.29549789  0.99879091  0.58549200    -0.52200
O694        O  0.40048611  0.90291458  0.59115526    -0.96900
O695        O  0.44572458  0.85006765  0.63090016    -0.54100
O696        O  0.34008935  0.78882306  0.60841933    -0.73500
C697        C  0.28876858  0.74293553  0.60779805     0.98900
O698        O  0.11139780  0.74841045  0.62625088    -0.62300
O699        O  0.30146203  0.85236871  0.69474540    -0.57100
O700        O  0.17710804  0.72233521  0.64591406    -0.93800
O701        O  0.23365270  0.74847678  0.66901961    -0.92200
O702        O  0.17988084  0.88024054  0.68448629    -0.92500
O703        O  0.11630250  0.86789640  0.65733619    -0.91300
C704        C  0.18849215  0.71187626  0.66032714     1.17700
H705        H  0.32177560  0.94947756  0.67958077     0.33700
H706        H  0.17162877  0.88380123  0.62643166     0.44500
H707        H  0.30867437  0.77906194  0.63836146     0.38000
H708        H  0.41176968  0.00397021  0.61576195     0.34500
H709        H  0.16162725  0.98893655  0.66280350     0.26300
H710        H  0.29116399  0.03414808  0.58606092     0.32300
H711        H  0.41600225  0.87700642  0.58777589     0.38200
H712        H  0.16486657  0.90504079  0.68916168     0.32600
H713        H  0.25812461  0.83392560  0.69552468     0.31500
H714        H  0.34595720  0.76960734  0.68222691     0.33200
H715        H  0.44969493  0.82772611  0.62170018     0.32100
H716        H  0.10742033  0.82652754  0.65703176     0.36100
H717        H  0.09749660  0.74761920  0.63756190     0.28900
H718        H  0.47484291  0.12850356  0.65901660     0.33100
H719        H  0.50020367  0.93215978  0.60814803     0.36000
H720        H  0.31033617  0.82335860  0.69977350     0.28600
H721        H  0.09953868  0.77361228  0.62025135     0.41400
H722        H  0.23759539  0.03836008  0.61548176     0.31500
H723        H  0.21390235  0.02752480  0.65098364     0.39100
H724        H  0.42117651  0.81961998  0.63903123     0.31000
H725        H  0.33688391  0.01345279  0.58220038     0.31000
H726        H  0.50854599  0.10310339  0.64901931     0.31300
Zr727      Zr  0.38039034  0.33597597  0.53573942     2.17500
O728        O  0.47421157  0.34505964  0.52743799    -0.51100
O729        O  0.35623840  0.26548044  0.51346281    -0.74300
O730        O  0.41811223  0.28971394  0.55415128    -0.81000
O731        O  0.42059964  0.47570037  0.51107169    -0.82800
O732        O  0.35725397  0.25711473  0.57610074    -0.78400
O733        O  0.45585858  0.41875026  0.52133794    -0.90100
O734        O  0.25823508  0.21962049  0.50817666    -0.76000
O735        O  0.28931377  0.25604835  0.54489257    -0.85500
O736        O  0.30881449  0.33754977  0.51794486    -0.85200
O737        O  0.37343465  0.36052874  0.56383897    -0.72000
O738        O  0.38798737  0.43051243  0.53894184    -0.84100
Zr739      Zr  0.21384413  0.37269435  0.55896497     2.26400
Zr740      Zr  0.27985835  0.28062335  0.57257585     2.06300
Zr741      Zr  0.31627202  0.43192867  0.52125325     2.10000
Zr742      Zr  0.21707124  0.25853638  0.52765592     1.78800
O743        O  0.35517426  0.53688937  0.51701480    -0.92900
O744        O  0.16999111  0.15349077  0.53339307    -0.40700
O745        O  0.22401026  0.35237061  0.53087231    -0.77300
O746        O  0.20351190  0.27704449  0.55577535    -0.96000
O747        O  0.28792182  0.37459138  0.57593247    -0.89300
O748        O  0.30459231  0.45253665  0.54898741    -0.92200
C749        C  0.31039377  0.22980071  0.50528320     1.01600
C750        C  0.46200741  0.46276017  0.51315307     1.14500
C751        C  0.40251795  0.26498116  0.56814812     1.05300
O752        O  0.20727715  0.17634659  0.57062742    -0.94300
O753        O  0.22523429  0.28988773  0.59531923    -0.90100
O754        O  0.17991744  0.33985085  0.58684459    -0.83200
C755        C  0.19211614  0.31217652  0.59770376     1.11900
O756        O  0.48248794  0.48817717  0.57008723    -0.96300
Zr757      Zr  0.37789930  0.45382689  0.56645239     1.88900
O758        O  0.23807652  0.46183464  0.57375242    -0.72900
O759        O  0.28976790  0.25280754  0.60045921    -0.52200
O760        O  0.39758843  0.45265169  0.59555822    -0.96900
O761        O  0.44144887  0.55457421  0.55709800    -0.54100
O762        O  0.33630922  0.50832594  0.57930776    -0.73500
C763        C  0.28540241  0.50388218  0.57989465     0.98900
O764        O  0.10645942  0.32326317  0.56017893    -0.62300
O765        O  0.29719000  0.41417140  0.49204502    -0.57100
O766        O  0.17297130  0.41600687  0.54123902    -0.93800
O767        O  0.23043094  0.44854278  0.51833357    -0.92200
O768        O  0.17656302  0.26506207  0.50141016    -0.92500
O769        O  0.11001601  0.21027774  0.52764281    -0.91300
C770        C  0.18502395  0.43928007  0.52700835     1.17700
H771        H  0.31594762  0.33322212  0.50657547     0.33700
H772        H  0.16533335  0.24704169  0.55967579     0.44500
H773        H  0.30496033  0.48952231  0.54903916     0.38000
H774        H  0.40559624  0.36417761  0.57043488     0.34500
H775        H  0.15359219  0.13408381  0.52275564     0.26300
H776        H  0.28667932  0.21367554  0.59970592     0.32300
H777        H  0.41106392  0.49324633  0.59938971     0.38200
H778        H  0.16431766  0.22694139  0.49595538     0.32600
H779        H  0.25533763  0.38292341  0.49136939     0.31500
H780        H  0.36108501  0.54253342  0.50504314     0.33200
H781        H  0.44925717  0.57921634  0.56698941     0.32100
H782        H  0.10138358  0.24281484  0.52862784     0.36100
H783        H  0.09294896  0.31133332  0.54877794     0.28900
H784        H  0.46721361  0.30444095  0.52637650     0.33100
H785        H  0.49612729  0.51832360  0.57882728     0.36000
H786        H  0.29771697  0.44984285  0.48786397     0.28600
H787        H  0.09409438  0.28555654  0.56588006     0.41400
H788        H  0.23096331  0.15659347  0.56987899     0.31500
H789        H  0.20282888  0.14598898  0.53552265     0.39100
H790        H  0.41576260  0.56348308  0.55024063     0.31000
H791        H  0.33090720  0.28029007  0.60382175     0.31000
H792        H  0.50146144  0.36235645  0.53683699     0.31300
C793        C  0.44520517  0.15533545  0.60914704    -0.18200
C794        C  0.46082631  0.19339043  0.59904284     0.05800
C795        C  0.45796320  0.22647211  0.58598698     0.07700
C796        C  0.43887149  0.24664382  0.57617912    -0.19100
C797        C  0.28193904  0.55154057  0.58707102    -0.18200
C798        C  0.28102951  0.59439542  0.59176995     0.05800
C799        C  0.28206302  0.64620652  0.59657267     0.07700
C800        C  0.28445038  0.69089560  0.60104137    -0.19100
C801        C  0.33704656  0.15868214  0.44781933    -0.18200
C802        C  0.33176915  0.17122181  0.46167344     0.05800
C803        C  0.32497669  0.18644996  0.47777971     0.07700
C804        C  0.31864894  0.20302666  0.49098693    -0.19100
C805        C  0.10912881  0.77777970  0.52958831    -0.18200
C806        C  0.13210471  0.79433687  0.54282682     0.05800
C807        C  0.15451716  0.81058247  0.55892357     0.07700
C808        C  0.17279207  0.82438189  0.57273330    -0.19100
C809        C  0.18310815  0.73225786  0.44274108    -0.18200
C810        C  0.22107196  0.75426446  0.43255569     0.05800
C811        C  0.25487811  0.78969699  0.41945645     0.07700
C812        C  0.27610515  0.82892620  0.40961833    -0.19100
C813        C  0.58206627  0.28899207  0.42135465    -0.18200
C814        C  0.62456875  0.33328612  0.42595004     0.05800
C815        C  0.67570813  0.38518236  0.43050921     0.07700
C816        C  0.71987464  0.42832916  0.43486370    -0.19100
C817        C  0.01450945  0.48553483  0.51441904    -0.18200
C818        C  0.05060781  0.47011742  0.51693650     0.05800
C819        C  0.09999973  0.46108300  0.51850541     0.07700
C820        C  0.14200395  0.45399521  0.52076656    -0.19100
C821        C  0.52136934  0.49849180  0.50678420    -0.18200
C822        C  0.57298679  0.51380461  0.50431303     0.05800
C823        C  0.63158885  0.52302031  0.50264125     0.07700
C824        C  0.68079884  0.53031856  0.50029031    -0.19100
C825        C  0.16894101  0.30730393  0.61395308    -0.18200
C826        C  0.15204572  0.30363631  0.62788770     0.05800
C827        C  0.13145896  0.29881632  0.64414576     0.07700
C828        C  0.10989756  0.29361195  0.65753602    -0.19100
C829        C  0.01926394  0.49463836  0.67367141    -0.18200
C830        C  0.05479970  0.54631341  0.67101609     0.05800
C831        C  0.10347863  0.60517932  0.66918294     0.07700
C832        C  0.14515515  0.65441090  0.66673483    -0.19100
C833        C  0.68434870  0.11540432  0.68777855    -0.18200
C834        C  0.63502142  0.07375093  0.68541078     0.05800
C835        C  0.57637728  0.02465924  0.68357816     0.07700
C836        C  0.52495969  0.98857341  0.68079200    -0.19100
C837        C  0.32710146  0.08021498  0.69585333    -0.18200
C838        C  0.33282830  0.10138465  0.70932709     0.05800
C839        C  0.33794027  0.12157977  0.72564933     0.07700
C840        C  0.34171595  0.13856692  0.73958422    -0.19100
C841        C  0.28243284  0.40968105  0.77674723    -0.18200
C842        C  0.26217271  0.42740445  0.76655769     0.05800
C843        C  0.22830236  0.42756706  0.75331022     0.07700
C844        C  0.18953205  0.41038066  0.74336466    -0.19100
C845        C  0.72469448  0.25433394  0.75369411    -0.18200
C846        C  0.68041527  0.25231842  0.75834041     0.05800
C847        C  0.62883408  0.25159131  0.76311661     0.07700
C848        C  0.58592016  0.25255749  0.76766059    -0.19100
C849        C  0.60464455  0.73329135  0.07704680    -0.18200
C850        C  0.58732219  0.75463483  0.08704663     0.05800
C851        C  0.58746761  0.78958887  0.10007151     0.07700
C852        C  0.60486626  0.82844830  0.11001576    -0.19100
C853        C  0.76223720  0.42739832  0.08581505    -0.18200
C854        C  0.76438425  0.38537890  0.09063744     0.05800
C855        C  0.76487774  0.33475681  0.09581636     0.07700
C856        C  0.76334081  0.29095132  0.10070771    -0.19100
C857        C  0.93915078  0.69547674  0.15687234    -0.18200
C858        C  0.91741662  0.68927857  0.14347018     0.05800
C859        C  0.89645134  0.68260787  0.12720189     0.07700
C860        C  0.87863261  0.67697486  0.11331066    -0.19100
C861        C  0.02772837  0.49190145  0.17412412    -0.18200
C862        C  0.99214166  0.44021097  0.17146493     0.05800
C863        C  0.94360764  0.38122488  0.16954863     0.07700
C864        C  0.90226108  0.33174917  0.16707005    -0.19100
C865        C  0.36388161  0.86948968  0.18851938    -0.18200
C866        C  0.41326781  0.91087007  0.18603047     0.05800
C867        C  0.47187802  0.95988960  0.18404509     0.07700
C868        C  0.52326571  0.99601407  0.18123254    -0.19100
C869        C  0.23291994  0.90996786  0.32390593    -0.18200
C870        C  0.21615211  0.88780914  0.31060644     0.05800
C871        C  0.20011938  0.86571317  0.29450719     0.07700
C872        C  0.18681547  0.84705980  0.28073575    -0.19100
C873        C  0.85264906  0.67741176  0.40695897    -0.18200
C874        C  0.84036262  0.68372499  0.39313191     0.05800
C875        C  0.82579880  0.69109929  0.37693949     0.07700
C876        C  0.80979634  0.69736927  0.36359973    -0.19100
C877        C  0.72119055  0.90472188  0.19695426    -0.18200
C878        C  0.71446080  0.88284767  0.21035478     0.05800
C879        C  0.70761745  0.86173978  0.22660728     0.07700
C880        C  0.70253834  0.84427342  0.24051614    -0.19100
C881        C  0.76298413  0.57431837  0.27706954    -0.18200
C882        C  0.78452107  0.55820701  0.26677674     0.05800
C883        C  0.81880246  0.55937492  0.25341236     0.07700
C884        C  0.85695991  0.57670135  0.24324276    -0.19100
C885        C  0.45649206  0.73106304  0.26892291    -0.18200
C886        C  0.41335483  0.73216396  0.26458805     0.05800
C887        C  0.36154774  0.73154392  0.25997796     0.07700
C888        C  0.31735737  0.72977655  0.25528396    -0.19100
C889        C  0.51580466  0.49438488  0.34835954    -0.18200
C890        C  0.50044012  0.44280657  0.35086580     0.05800
C891        C  0.49123797  0.38425670  0.35257438     0.07700
C892        C  0.48394308  0.33508703  0.35495473    -0.19100
C893        C  0.52828639  0.00106291  0.34036522    -0.18200
C894        C  0.54416604  0.96521354  0.33797832     0.05800
C895        C  0.55357525  0.91600801  0.33641328     0.07700
C896        C  0.56056656  0.87393569  0.33410958    -0.19100
C897        C  0.85951534  0.13279326  0.78008184    -0.18200
C898        C  0.84668235  0.11438224  0.79389951     0.05800
C899        C  0.83116954  0.09297269  0.81009555     0.07700
C900        C  0.81457928  0.07114028  0.82344857    -0.19100
C901        C  0.48585796  0.10928373  0.83280437    -0.18200
C902        C  0.49391770  0.06776740  0.83499792     0.05800
C903        C  0.50409103  0.01895315  0.83657411     0.07700
C904        C  0.52005056  0.98316082  0.83906671    -0.19100
C905        C  0.52910691  0.48729526  0.84781492    -0.18200
C906        C  0.54490287  0.53900095  0.85024089     0.05800
C907        C  0.55484086  0.59786126  0.85169053     0.07700
C908        C  0.56256072  0.64728888  0.85382990    -0.19100
C909        C  0.72352458  0.77613258  0.99053299    -0.18200
C910        C  0.71753690  0.79225195  0.97719459     0.05800
C911        C  0.71121063  0.80747608  0.96101029     0.07700
C912        C  0.70615781  0.82032630  0.94715388    -0.19100
C913        C  0.93705027  0.20358836  0.02997117    -0.18200
C914        C  0.91540579  0.18786433  0.04340380     0.05800
C915        C  0.89414485  0.17250082  0.05965706     0.07700
C916        C  0.87628728  0.15929191  0.07353684    -0.19100
C917        C  0.18953820  0.29991132  0.90634172    -0.18200
C918        C  0.20229280  0.29520029  0.89245037     0.05800
C919        C  0.21724064  0.28968368  0.87617659     0.07700
C920        C  0.23339698  0.28457657  0.86276037    -0.19100
C921        C  0.76474031  0.15014000  0.90997804    -0.18200
C922        C  0.78593414  0.18855156  0.92004863     0.05800
C923        C  0.82050820  0.22301103  0.93316706     0.07700
C924        C  0.85922110  0.24445618  0.94314382    -0.19100
C925        C  0.32340850  0.54915271  0.93383304    -0.18200
C926        C  0.36700991  0.59206523  0.92900828     0.05800
C927        C  0.41727087  0.64399424  0.92386725     0.07700
C928        C  0.45921949  0.68859574  0.91911102    -0.19100
C929        C  0.02898528  0.49438123  0.01346578    -0.18200
C930        C  0.99320496  0.51039364  0.01593067     0.05800
C931        C  0.94438225  0.52055704  0.01755231     0.07700
C932        C  0.90281399  0.52844126  0.01988910    -0.19100
C933        C  0.52353448  0.48451424  0.00595311    -0.18200
C934        C  0.47187082  0.46854768  0.00337244     0.05800
C935        C  0.41288092  0.45805210  0.00165252     0.07700
C936        C  0.36325958  0.44952344  0.99927958    -0.19100
loop_ 
_geom_bond_atom_site_label_1 
_geom_bond_atom_site_label_2 
_geom_bond_distance 
_geom_bond_site_symmetry_2 
_ccdc_geom_bond_type 
Zr1           O2   2.446   1_455  S
Zr1           O3   2.453   1_456  S
Zr1           O4   2.436   1_455  S
Zr1           O7   2.390       .  S
Zr1           O9   2.377       .  S
Zr1          O10   2.389   1_556  S
Zr1          O11   2.419       .  S
Zr1          O12   2.404       .  S
O2           H58   0.990       .  S
O2           H66   0.991       .  S
O3           C23   1.284       .  A
O4           C25   1.278       .  A
O5          Zr15   2.522   1_554  S
O5           C24   1.301       .  A
O6          Zr14   2.414   1_655  S
O6           C25   1.277       .  A
O7           C24   1.273   1_556  A
O8          Zr16   2.424   1_554  S
O8           C23   1.280   1_455  A
O9          Zr14   2.398       .  S
O9          Zr16   2.385       .  S
O10         Zr15   2.393   1_554  S
O10         Zr16   2.391   1_554  S
O10          H45   0.965       .  S
O11         Zr14   2.406       .  S
O11         Zr31   2.401       .  S
O11          H48   0.965       .  S
O12         Zr15   2.391       .  S
O12         Zr31   2.382       .  S
Zr13         O38   2.444       .  S
Zr13         O32   2.425       .  S
Zr13         O40   2.402       .  S
Zr13         O28   2.438       .  S
Zr13         O19   2.404       .  S
Zr13         O20   2.403       .  S
Zr13         O21   2.367       .  S
Zr13         O22   2.394       .  S
Zr14         O33   2.446       .  S
Zr14         O26   2.435       .  S
Zr14         O27   2.431       .  S
Zr14         O20   2.388       .  S
Zr14         O21   2.385       .  S
Zr15         O17   2.433   1_556  S
Zr15         O39   2.435   1_556  S
Zr15         O41   2.512   1_556  S
Zr15         O19   2.402       .  S
Zr15         O22   2.383       .  S
Zr16         O42   2.435   1_556  S
Zr16         O43   2.435       .  S
Zr16         O18   2.438       .  S
Zr16         O19   2.395       .  S
Zr16         O20   2.412       .  S
O17          H54   0.990       .  S
O18          H49   0.990       .  S
O18          H63   0.990   1_455  S
O20          H46   0.967       .  S
O21         Zr31   2.364       .  S
O22         Zr31   2.381       .  S
O22          H47   0.966       .  S
C23         C913   1.441       .  S
C24         C929   1.455       .  S
C25         C924   1.426       .  S
O26          H62   0.990   1_455  S
O27          C29   1.281       .  A
O28          C29   1.284       .  A
C29         C917   1.437       .  S
O30         Zr31   2.440       .  S
O30          H59   0.990       .  S
Zr31         O34   2.438       .  S
Zr31         O35   2.437       .  S
Zr31         O36   2.428       .  S
O32          C37   1.282       .  A
O33          H50   0.991   1_455  S
O33          H65   0.991       .  S
O34          H51   0.990       .  S
O35          H55   0.990       .  S
O35          H64   0.990       .  S
O36          C37   1.282       .  A
C37         C925   1.427       .  S
O38          H57   0.990       .  S
O38          H61   0.990       .  S
O39          H53   0.990       .  S
O39          H60   0.990       .  S
O40          C44   1.278       .  A
O41          C44   1.301   1_554  A
O42          H52   0.990       .  S
O43          H56   0.990       .  S
C44         C936   1.458       .  S
Zr67         O68   2.447       .  S
Zr67         O69   2.452       .  S
Zr67         O70   2.440       .  S
Zr67         O73   2.391   1_545  S
Zr67         O75   2.377   1_545  S
Zr67         O76   2.391   1_545  S
Zr67         O77   2.420   1_545  S
Zr67         O78   2.404   1_545  S
O68         H124   0.990       .  S
O68         H132   0.991       .  S
O69          C89   1.283       .  A
O70          C91   1.279       .  A
O71         Zr81   2.523       .  S
O71          C90   1.302       .  A
O72         Zr80   2.414   1_545  S
O72          C91   1.277       .  A
O73          C90   1.273       .  A
O74         Zr82   2.421       .  S
O74          C89   1.279   1_565  A
O75         Zr80   2.397       .  S
O75         Zr82   2.387       .  S
O76         Zr81   2.396       .  S
O76         Zr82   2.394       .  S
O76         H111   0.965       .  S
O77         Zr80   2.405       .  S
O77         Zr97   2.403       .  S
O77         H114   0.964   1_565  S
O78         Zr81   2.384       .  S
O78         Zr97   2.382       .  S
Zr79        O104   2.441       .  S
Zr79         O98   2.415       .  S
Zr79        O106   2.399       .  S
Zr79         O94   2.438       .  S
Zr79         O85   2.400       .  S
Zr79         O86   2.400       .  S
Zr79         O87   2.367       .  S
Zr79         O88   2.393       .  S
Zr80         O99   2.442       .  S
Zr80         O92   2.434       .  S
Zr80         O93   2.429       .  S
Zr80         O86   2.386       .  S
Zr80         O87   2.385       .  S
Zr81         O83   2.435       .  S
Zr81        O105   2.434       .  S
Zr81        O107   2.511       .  S
Zr81         O85   2.403       .  S
Zr81         O88   2.386       .  S
Zr82        O108   2.435       .  S
Zr82        O109   2.435       .  S
Zr82         O84   2.439       .  S
Zr82         O85   2.394       .  S
Zr82         O86   2.409       .  S
O83         H120   0.990       .  S
O84         H115   0.990       .  S
O84         H129   0.990   1_565  S
O86         H112   0.967       .  S
O87         Zr97   2.361       .  S
O88         Zr97   2.378       .  S
O88         H113   0.966       .  S
C89         C900   1.438       .  S
C90         C904   1.454       .  S
C91         C921   1.426       .  S
O92         H128   0.990   1_565  S
O93          C95   1.281       .  A
O94          C95   1.284       .  A
C95         C912   1.438       .  S
O96         Zr97   2.438       .  S
O96         H125   0.990       .  S
Zr97        O100   2.436       .  S
Zr97        O101   2.436       .  S
Zr97        O102   2.436       .  S
O98         C103   1.279       .  A
O99         H116   0.990   1_565  S
O99         H131   0.990   1_565  S
O100        H117   0.990       .  S
O101        H121   0.990       .  S
O101        H130   0.990       .  S
O102        C103   1.283       .  A
C103        C928   1.428       .  S
O104        H123   0.990       .  S
O104        H127   0.990       .  S
O105        H119   0.990       .  S
O105        H126   0.990       .  S
O106        C110   1.277       .  A
O107        C110   1.300       .  A
O108        H118   0.990       .  S
O109        H122   0.990       .  S
C110        C908   1.457       .  S
Zr133       O134   2.447       .  S
Zr133       O135   2.450       .  S
Zr133       O136   2.445       .  S
Zr133       O139   2.391       .  S
Zr133       O141   2.378       .  S
Zr133       O142   2.393       .  S
Zr133       O143   2.417       .  S
Zr133       O144   2.405       .  S
O134        H190   0.991       .  S
O134        H198   0.991       .  S
O135        C155   1.284       .  A
O136        C157   1.280       .  A
O137       Zr147   2.519       .  S
O137        C156   1.301       .  A
O138       Zr146   2.413       .  S
O138        C157   1.276       .  A
O139        C156   1.273       .  A
O140       Zr148   2.420       .  S
O140        C155   1.279       .  A
O141       Zr146   2.399       .  S
O141       Zr148   2.390       .  S
O142       Zr147   2.398       .  S
O142       Zr148   2.391       .  S
O142        H177   0.965       .  S
O143       Zr146   2.406       .  S
O143       Zr163   2.404       .  S
O143        H180   0.965       .  S
O144       Zr147   2.392       .  S
O144       Zr163   2.382       .  S
Zr145       O170   2.439       .  S
Zr145       O164   2.414       .  S
Zr145       O172   2.398       .  S
Zr145       O160   2.438       .  S
Zr145       O151   2.400       .  S
Zr145       O152   2.398       .  S
Zr145       O153   2.366       .  S
Zr145       O154   2.391       .  S
Zr146       O165   2.444       .  S
Zr146       O158   2.433       .  S
Zr146       O159   2.429       .  S
Zr146       O152   2.386       .  S
Zr146       O153   2.384       .  S
Zr147       O149   2.435       .  S
Zr147       O171   2.435       .  S
Zr147       O173   2.514       .  S
Zr147       O151   2.401       .  S
Zr147       O154   2.382       .  S
Zr148       O174   2.437       .  S
Zr148       O175   2.437       .  S
Zr148       O150   2.437       .  S
Zr148       O151   2.390       .  S
Zr148       O152   2.409       .  S
O149        H186   0.990       .  S
O150        H181   0.990       .  S
O150        H195   0.990       .  S
O152        H178   0.967       .  S
O153       Zr163   2.361       .  S
O154       Zr163   2.378       .  S
O154        H179   0.966       .  S
C155        C876   1.439       .  S
C156        C889   1.453       .  S
C157        C881   1.428       .  S
O158        H194   0.990       .  S
O159        C161   1.281       .  A
O160        C161   1.284       .  A
C161        C880   1.438       .  S
O162       Zr163   2.439       .  S
O162        H191   0.990       .  S
Zr163       O166   2.436       .  S
Zr163       O167   2.439       .  S
Zr163       O168   2.433       .  S
O164        C169   1.280       .  A
O165        H182   0.990       .  S
O165        H197   0.991       .  S
O166        H183   0.990       .  S
O167        H187   0.990       .  S
O167        H196   0.990       .  S
O168        C169   1.282       .  A
C169        C885   1.424       .  S
O170        H189   0.990       .  S
O170        H193   0.990       .  S
O171        H185   0.990       .  S
O171        H192   0.990       .  S
O172        C176   1.278       .  A
O173        C176   1.301       .  A
O174        H184   0.990       .  S
O175        H188   0.990       .  S
C176        C896   1.457       .  S
Zr199       O200   2.446   1_455  S
Zr199       O201   2.447   1_455  S
Zr199       O202   2.442   1_455  S
Zr199       O205   2.395       .  S
Zr199       O207   2.377       .  S
Zr199       O208   2.393       .  S
Zr199       O209   2.417       .  S
Zr199       O210   2.403       .  S
O200        H256   0.990       .  S
O200        H264   0.991       .  S
O201        C221   1.283       .  A
O202        C223   1.280       .  A
O203       Zr213   2.516       .  S
O203        C222   1.301       .  A
O204       Zr212   2.415   1_655  S
O204        C223   1.276       .  A
O205        C222   1.274       .  A
O206       Zr214   2.419       .  S
O206        C221   1.279   1_455  A
O207       Zr212   2.395       .  S
O207       Zr214   2.387       .  S
O208       Zr213   2.400       .  S
O208       Zr214   2.393       .  S
O208        H243   0.965       .  S
O209       Zr212   2.407       .  S
O209       Zr229   2.405       .  S
O209        H246   0.965       .  S
O210       Zr213   2.391       .  S
O210       Zr229   2.380       .  S
Zr211       O236   2.441       .  S
Zr211       O230   2.415       .  S
Zr211       O238   2.404       .  S
Zr211       O226   2.437       .  S
Zr211       O217   2.399       .  S
Zr211       O218   2.399       .  S
Zr211       O219   2.368       .  S
Zr211       O220   2.394       .  S
Zr212       O231   2.445       .  S
Zr212       O224   2.434       .  S
Zr212       O225   2.429       .  S
Zr212       O218   2.386       .  S
Zr212       O219   2.384       .  S
Zr213       O215   2.436       .  S
Zr213       O237   2.435       .  S
Zr213       O239   2.512       .  S
Zr213       O217   2.401       .  S
Zr213       O220   2.385       .  S
Zr214       O240   2.435       .  S
Zr214       O241   2.436       .  S
Zr214       O216   2.438       .  S
Zr214       O217   2.392       .  S
Zr214       O218   2.409       .  S
O215        H252   0.990       .  S
O216        H247   0.990       .  S
O216        H261   0.990   1_455  S
O218        H244   0.967       .  S
O219       Zr229   2.363       .  S
O220       Zr229   2.381       .  S
O220        H245   0.966       .  S
C221        C857   1.437       .  S
C222        C861   1.454       .  S
C223        C884   1.428       .  S
O224        H260   0.990   1_455  S
O225        C227   1.281       .  A
O226        C227   1.284       .  A
C227        C872   1.437       .  S
O228       Zr229   2.440       .  S
O228        H257   0.990       .  S
Zr229       O232   2.436       .  S
Zr229       O233   2.439       .  S
Zr229       O234   2.430       .  S
O230        C235   1.280       .  A
O231        H248   0.991   1_455  S
O231        H263   0.991   1_455  S
O232        H249   0.990       .  S
O233        H253   0.990       .  S
O233        H262   0.990       .  S
O234        C235   1.282       .  A
C235        C888   1.424       .  S
O236        H255   0.990       .  S
O236        H259   0.990       .  S
O237        H251   0.990       .  S
O237        H258   0.990       .  S
O238        C242   1.278       .  A
O239        C242   1.300       .  A
O240        H250   0.990       .  S
O241        H254   0.990       .  S
C242        C865   1.458       .  S
Zr265       O266   2.448       .  S
Zr265       O267   2.445       .  S
Zr265       O268   2.440       .  S
Zr265       O271   2.390       .  S
Zr265       O273   2.379       .  S
Zr265       O274   2.393   1_565  S
Zr265       O275   2.416   1_565  S
Zr265       O276   2.403   1_565  S
O266        H322   0.991       .  S
O266        H330   0.991       .  S
O267        C287   1.282       .  A
O268        C289   1.279       .  A
O269       Zr279   2.521       .  S
O269        C288   1.301       .  A
O270       Zr278   2.416   1_565  S
O270        C289   1.277       .  A
O271        C288   1.273   1_565  A
O272       Zr280   2.425   1_565  S
O272        C287   1.280       .  A
O273       Zr278   2.397   1_565  S
O273       Zr280   2.386   1_565  S
O274       Zr279   2.397       .  S
O274       Zr280   2.390       .  S
O274        H309   0.965       .  S
O275       Zr278   2.407       .  S
O275       Zr295   2.402       .  S
O275        H312   0.965   1_545  S
O276       Zr279   2.393       .  S
O276       Zr295   2.381       .  S
Zr277       O302   2.441       .  S
Zr277       O296   2.415       .  S
Zr277       O304   2.403       .  S
Zr277       O292   2.444       .  S
Zr277       O283   2.401       .  S
Zr277       O284   2.399       .  S
Zr277       O285   2.367       .  S
Zr277       O286   2.394       .  S
Zr278       O297   2.442   1_545  S
Zr278       O290   2.433   1_545  S
Zr278       O291   2.432       .  S
Zr278       O284   2.386       .  S
Zr278       O285   2.384       .  S
Zr279       O281   2.436       .  S
Zr279       O303   2.435       .  S
Zr279       O305   2.516       .  S
Zr279       O283   2.401       .  S
Zr279       O286   2.383       .  S
Zr280       O306   2.434       .  S
Zr280       O307   2.435       .  S
Zr280       O282   2.438   1_545  S
Zr280       O283   2.393       .  S
Zr280       O284   2.411       .  S
O281        H318   0.990       .  S
O282        H313   0.990       .  S
O282        H327   0.990       .  S
O284        H310   0.967       .  S
O285       Zr295   2.363       .  S
O286       Zr295   2.382       .  S
O286        H311   0.966       .  S
C287        C877   1.438       .  S
C288        C868   1.453   1_545  S
C289        C852   1.428       .  S
O290        H326   0.990       .  S
O291        C293   1.282       .  A
O292        C293   1.285       .  A
C293        C916   1.442       .  S
O294       Zr295   2.440       .  S
O294        H323   0.990       .  S
Zr295       O298   2.437       .  S
Zr295       O299   2.438       .  S
Zr295       O300   2.428       .  S
O296        C301   1.280       .  A
O297        H314   0.990       .  S
O297        H329   0.991       .  S
O298        H315   0.990       .  S
O299        H319   0.990       .  S
O299        H328   0.990       .  S
O300        C301   1.282       .  A
C301        C856   1.422       .  S
O302        H321   0.990       .  S
O302        H325   0.990       .  S
O303        H317   0.990       .  S
O303        H324   0.990       .  S
O304        C308   1.278       .  A
O305        C308   1.301       .  A
O306        H316   0.990       .  S
O307        H320   0.990       .  S
C308        C864   1.460       .  S
Zr331       O332   2.447       .  S
Zr331       O333   2.447       .  S
Zr331       O334   2.441       .  S
Zr331       O337   2.387       .  S
Zr331       O339   2.375       .  S
Zr331       O340   2.392       .  S
Zr331       O341   2.414       .  S
Zr331       O342   2.405       .  S
O332        H388   0.991       .  S
O332        H396   0.991       .  S
O333        C353   1.283       .  A
O334        C355   1.279       .  A
O335       Zr345   2.520       .  S
O335        C354   1.301       .  A
O336       Zr344   2.413       .  S
O336        C355   1.276       .  A
O337        C354   1.273       .  A
O338       Zr346   2.422       .  S
O338        C353   1.279       .  A
O339       Zr344   2.398       .  S
O339       Zr346   2.386       .  S
O340       Zr345   2.396       .  S
O340       Zr346   2.389       .  S
O340        H375   0.965       .  S
O341       Zr344   2.402       .  S
O341       Zr361   2.402       .  S
O341        H378   0.965       .  S
O342       Zr345   2.391       .  S
O342       Zr361   2.382       .  S
Zr343       O368   2.440       .  S
Zr343       O362   2.413       .  S
Zr343       O370   2.404       .  S
Zr343       O358   2.446       .  S
Zr343       O349   2.402       .  S
Zr343       O350   2.397       .  S
Zr343       O351   2.366       .  S
Zr343       O352   2.393       .  S
Zr344       O363   2.444       .  S
Zr344       O356   2.433       .  S
Zr344       O357   2.424       .  S
Zr344       O350   2.388       .  S
Zr344       O351   2.384       .  S
Zr345       O347   2.436       .  S
Zr345       O369   2.438   1_554  S
Zr345       O371   2.514       .  S
Zr345       O349   2.402       .  S
Zr345       O352   2.385       .  S
Zr346       O372   2.435       .  S
Zr346       O373   2.435       .  S
Zr346       O348   2.436       .  S
Zr346       O349   2.393       .  S
Zr346       O350   2.410       .  S
O347        H384   0.990       .  S
O348        H379   0.990       .  S
O348        H393   0.990       .  S
O350        H376   0.967       .  S
O351       Zr361   2.361       .  S
O352       Zr361   2.381       .  S
O352        H377   0.966       .  S
C353        C909   1.438   1_554  S
C354        C933   1.452       .  S
C355        C849   1.428       .  S
O356        H392   0.990       .  S
O357        C359   1.280       .  A
O358        C359   1.285       .  A
C359        C860   1.439       .  S
O360       Zr361   2.439       .  S
O360        H389   0.990       .  S
Zr361       O364   2.436       .  S
Zr361       O365   2.438       .  S
Zr361       O366   2.429       .  S
O362        C367   1.279       .  A
O363        H380   0.990       .  S
O363        H395   0.990       .  S
O364        H381   0.990       .  S
O365        H385   0.990       .  S
O365        H394   0.990       .  S
O366        C367   1.282       .  A
C367        C853   1.422       .  S
O368        H387   0.990       .  S
O368        H391   0.990       .  S
O369        H383   0.990       .  S
O369        H390   0.990       .  S
O370        C374   1.279       .  A
O371        C374   1.301       .  A
O372        H382   0.990   1_554  S
O373        H386   0.990       .  S
C374        C932   1.460       .  S
Zr397       O398   2.447       .  S
Zr397       O399   2.447       .  S
Zr397       O400   2.439       .  S
Zr397       O403   2.392       .  S
Zr397       O405   2.377       .  S
Zr397       O406   2.392       .  S
Zr397       O407   2.417       .  S
Zr397       O408   2.402       .  S
O398        H454   0.991       .  S
O398        H462   0.991       .  S
O399        C419   1.283       .  A
O400        C421   1.279       .  A
O401       Zr411   2.521       .  S
O401        C420   1.301       .  A
O402       Zr410   2.411       .  S
O402        C421   1.276       .  A
O403        C420   1.274       .  A
O404       Zr412   2.418       .  S
O404        C419   1.278       .  A
O405       Zr410   2.399       .  S
O405       Zr412   2.386       .  S
O406       Zr411   2.399       .  S
O406       Zr412   2.393       .  S
O406        H441   0.965       .  S
O407       Zr410   2.404       .  S
O407       Zr427   2.399       .  S
O407        H444   0.965       .  S
O408       Zr411   2.388       .  S
O408       Zr427   2.377       .  S
Zr409       O434   2.442       .  S
Zr409       O428   2.413       .  S
Zr409       O436   2.402       .  S
Zr409       O424   2.440       .  S
Zr409       O415   2.399       .  S
Zr409       O416   2.398       .  S
Zr409       O417   2.366       .  S
Zr409       O418   2.394       .  S
Zr410       O429   2.443       .  S
Zr410       O422   2.433       .  S
Zr410       O423   2.432       .  S
Zr410       O416   2.387       .  S
Zr410       O417   2.380       .  S
Zr411       O413   2.437       .  S
Zr411       O435   2.434       .  S
Zr411       O437   2.514       .  S
Zr411       O415   2.403       .  S
Zr411       O418   2.383       .  S
Zr412       O438   2.436       .  S
Zr412       O439   2.434       .  S
Zr412       O414   2.437       .  S
Zr412       O415   2.394       .  S
Zr412       O416   2.409       .  S
O413        H450   0.990       .  S
O414        H445   0.990       .  S
O414        H459   0.990       .  S
O416        H442   0.967       .  S
O417       Zr427   2.362       .  S
O418       Zr427   2.382       .  S
O418        H443   0.966       .  S
C419        C920   1.436       .  S
C420        C905   1.452       .  S
C421        C841   1.425       .  S
O422        H458   0.990       .  S
O423        C425   1.282       .  A
O424        C425   1.284       .  A
C425        C840   1.440       .  S
O426       Zr427   2.440       .  S
O426        H455   0.990       .  S
Zr427       O430   2.436       .  S
Zr427       O431   2.438       .  S
Zr427       O432   2.423       .  S
O428        C433   1.280       .  A
O429        H446   0.990       .  S
O429        H461   0.991       .  S
O430        H447   0.990       .  S
O431        H451   0.990       .  S
O431        H460   0.990       .  S
O432        C433   1.281       .  A
C433        C848   1.421       .  S
O434        H453   0.990       .  S
O434        H457   0.990       .  S
O435        H449   0.990       .  S
O435        H456   0.990       .  S
O436        C440   1.278       .  A
O437        C440   1.301       .  A
O438        H448   0.990       .  S
O439        H452   0.989       .  S
C440        C901   1.460       .  S
Zr463       O464   2.446       .  S
Zr463       O465   2.449       .  S
Zr463       O466   2.436       .  S
Zr463       O469   2.388       .  S
Zr463       O471   2.375       .  S
Zr463       O472   2.391   1_455  S
Zr463       O473   2.414       .  S
Zr463       O474   2.404   1_455  S
O464        H520   0.991       .  S
O464        H528   0.991       .  S
O465        C485   1.283       .  A
O466        C487   1.278       .  A
O467       Zr477   2.523       .  S
O467        C486   1.301       .  A
O468       Zr476   2.409   1_455  S
O468        C487   1.277       .  A
O469        C486   1.273   1_455  A
O470       Zr478   2.420   1_455  S
O470        C485   1.279       .  A
O471       Zr476   2.400   1_455  S
O471       Zr478   2.384   1_455  S
O472       Zr477   2.394       .  S
O472       Zr478   2.393       .  S
O472        H507   0.965       .  S
O473       Zr476   2.399   1_455  S
O473       Zr493   2.402   1_455  S
O473        H510   0.965       .  S
O474       Zr477   2.390       .  S
O474       Zr493   2.384       .  S
Zr475       O500   2.444       .  S
Zr475       O494   2.416       .  S
Zr475       O502   2.403       .  S
Zr475       O490   2.444       .  S
Zr475       O481   2.401       .  S
Zr475       O482   2.397       .  S
Zr475       O483   2.365       .  S
Zr475       O484   2.395       .  S
Zr476       O495   2.442   1_655  S
Zr476       O488   2.434   1_655  S
Zr476       O489   2.424       .  S
Zr476       O482   2.389       .  S
Zr476       O483   2.382       .  S
Zr477       O479   2.436       .  S
Zr477       O501   2.437       .  S
Zr477       O503   2.511       .  S
Zr477       O481   2.403       .  S
Zr477       O484   2.386       .  S
Zr478       O504   2.437       .  S
Zr478       O505   2.436       .  S
Zr478       O480   2.437   1_655  S
Zr478       O481   2.391       .  S
Zr478       O482   2.407       .  S
O479        H516   0.990       .  S
O480        H511   0.990       .  S
O480        H525   0.990       .  S
O482        H508   0.967       .  S
O483       Zr493   2.362       .  S
O484       Zr493   2.380       .  S
O484        H509   0.966       .  S
C485        C828   1.438       .  S
C486        C829   1.454   1_655  S
C487        C844   1.425       .  S
O488        H524   0.990       .  S
O489        C491   1.281       .  A
O490        C491   1.285       .  A
C491        C897   1.438       .  S
O492       Zr493   2.438       .  S
O492        H521   0.990       .  S
Zr493       O496   2.437       .  S
Zr493       O497   2.436       .  S
Zr493       O498   2.425       .  S
O494        C499   1.280       .  A
O495        H512   0.990       .  S
O495        H527   0.990       .  S
O496        H513   0.990       .  S
O497        H517   0.990       .  S
O497        H526   0.990       .  S
O498        C499   1.281       .  A
C499        C845   1.421       .  S
O500        H519   0.990       .  S
O500        H523   0.990       .  S
O501        H515   0.990       .  S
O501        H522   0.990       .  S
O502        C506   1.278       .  A
O503        C506   1.301       .  A
O504        H514   0.990       .  S
O505        H518   0.990       .  S
C506        C833   1.458       .  S
Zr529       O530   2.446       .  S
Zr529       O531   2.451       .  S
Zr529       O532   2.443       .  S
Zr529       O535   2.390       .  S
Zr529       O537   2.376       .  S
Zr529       O538   2.393   1_455  S
Zr529       O539   2.417       .  S
Zr529       O540   2.404   1_455  S
O530        H586   0.990       .  S
O530        H594   0.991       .  S
O531        C551   1.284       .  A
O532        C553   1.280       .  A
O533       Zr543   2.515       .  S
O533        C552   1.300       .  A
O534       Zr542   2.414   1_455  S
O534        C553   1.276       .  A
O535        C552   1.273   1_455  A
O536       Zr544   2.421   1_455  S
O536        C551   1.279       .  A
O537       Zr542   2.396   1_455  S
O537       Zr544   2.386   1_455  S
O538       Zr543   2.395       .  S
O538       Zr544   2.391       .  S
O538        H573   0.965       .  S
O539       Zr542   2.406   1_455  S
O539       Zr559   2.401   1_455  S
O539        H576   0.964       .  S
O540       Zr543   2.393       .  S
O540       Zr559   2.381       .  S
Zr541       O566   2.443       .  S
Zr541       O560   2.417       .  S
Zr541       O568   2.403       .  S
Zr541       O556   2.442       .  S
Zr541       O547   2.402       .  S
Zr541       O548   2.401       .  S
Zr541       O549   2.370       .  S
Zr541       O550   2.394       .  S
Zr542       O561   2.444   1_655  S
Zr542       O554   2.435   1_655  S
Zr542       O555   2.429       .  S
Zr542       O548   2.386       .  S
Zr542       O549   2.386       .  S
Zr543       O545   2.435       .  S
Zr543       O567   2.436       .  S
Zr543       O569   2.511       .  S
Zr543       O547   2.401       .  S
Zr543       O550   2.384       .  S
Zr544       O570   2.435       .  S
Zr544       O571   2.435       .  S
Zr544       O546   2.438   1_655  S
Zr544       O547   2.395       .  S
Zr544       O548   2.410       .  S
O545        H582   0.990       .  S
O546        H577   0.990       .  S
O546        H591   0.990       .  S
O548        H574   0.967       .  S
O549       Zr559   2.365       .  S
O550       Zr559   2.384       .  S
O550        H575   0.966       .  S
C551        C805   1.439       .  S
C552        C817   1.450   1_655  S
C553        C809   1.428       .  S
O554        H590   0.990       .  S
O555        C557   1.281       .  A
O556        C557   1.285       .  A
C557        C873   1.440       .  S
O558       Zr559   2.441       .  S
O558        H587   0.990       .  S
Zr559       O562   2.438       .  S
Zr559       O563   2.438       .  S
Zr559       O564   2.427       .  S
O560        C565   1.280       .  A
O561        H578   0.990       .  S
O561        H593   0.990       .  S
O562        H579   0.990       .  S
O563        H583   0.990       .  S
O563        H592   0.990       .  S
O564        C565   1.281       .  A
C565        C816   1.424       .  S
O566        H585   0.990       .  S
O566        H589   0.990       .  S
O567        H581   0.990       .  S
O567        H588   0.990       .  S
O568        C572   1.278       .  A
O569        C572   1.300       .  A
O570        H580   0.990       .  S
O571        H584   0.990       .  S
C572        C824   1.459       .  S
Zr595       O596   2.446       .  S
Zr595       O597   2.445       .  S
Zr595       O598   2.439       .  S
Zr595       O601   2.393       .  S
Zr595       O603   2.379       .  S
Zr595       O604   2.393   1_565  S
Zr595       O605   2.417   1_565  S
Zr595       O606   2.400   1_565  S
O596        H652   0.990       .  S
O596        H660   0.991       .  S
O597        C617   1.283       .  A
O598        C619   1.279       .  A
O599       Zr609   2.517       .  S
O599        C618   1.300       .  A
O600       Zr608   2.418   1_565  S
O600        C619   1.277       .  A
O601        C618   1.274   1_565  A
O602       Zr610   2.420   1_565  S
O602        C617   1.279       .  A
O603       Zr608   2.397   1_565  S
O603       Zr610   2.388   1_565  S
O604       Zr609   2.399       .  S
O604       Zr610   2.393       .  S
O604        H639   0.965       .  S
O605       Zr608   2.406       .  S
O605       Zr625   2.400       .  S
O605        H642   0.964   1_545  S
O606       Zr609   2.387       .  S
O606       Zr625   2.378       .  S
Zr607       O632   2.442       .  S
Zr607       O626   2.419       .  S
Zr607       O634   2.405       .  S
Zr607       O622   2.435       .  S
Zr607       O613   2.400       .  S
Zr607       O614   2.400       .  S
Zr607       O615   2.368       .  S
Zr607       O616   2.392       .  S
Zr608       O627   2.444   1_545  S
Zr608       O620   2.433   1_545  S
Zr608       O621   2.430       .  S
Zr608       O614   2.386       .  S
Zr608       O615   2.384       .  S
Zr609       O611   2.434       .  S
Zr609       O633   2.435       .  S
Zr609       O635   2.510       .  S
Zr609       O613   2.401       .  S
Zr609       O616   2.384       .  S
Zr610       O636   2.436       .  S
Zr610       O637   2.438       .  S
Zr610       O612   2.439       .  S
Zr610       O613   2.394       .  S
Zr610       O614   2.410       .  S
O611        H648   0.990       .  S
O612        H643   0.990       .  S
O612        H657   0.990   1_545  S
O614        H640   0.967       .  S
O615       Zr625   2.362       .  S
O616       Zr625   2.383       .  S
O616        H641   0.966       .  S
C617        C869   1.436       .  S
C618        C893   1.452       .  S
C619        C812   1.428       .  S
O620        H656   0.990       .  S
O621        C623   1.281       .  A
O622        C623   1.283       .  A
C623        C801   1.436       .  S
O624       Zr625   2.440       .  S
O624        H653   0.990       .  S
Zr625       O628   2.437       .  S
Zr625       O629   2.437       .  S
Zr625       O630   2.426       .  S
O626        C631   1.280       .  A
O627        H644   0.990       .  S
O627        H659   0.990       .  S
O628        H645   0.990       .  S
O629        H649   0.990       .  S
O629        H658   0.990       .  S
O630        C631   1.281       .  A
C631        C813   1.424       .  S
O632        H651   0.990       .  S
O632        H655   0.990       .  S
O633        H647   0.990       .  S
O633        H654   0.990       .  S
O634        C638   1.279       .  A
O635        C638   1.300       .  A
O636        H646   0.990       .  S
O637        H650   0.990       .  S
C638        C892   1.459       .  S
Zr661       O662   2.447       .  S
Zr661       O663   2.450       .  S
Zr661       O664   2.436       .  S
Zr661       O667   2.388       .  S
Zr661       O669   2.379   1_545  S
Zr661       O670   2.391   1_545  S
Zr661       O671   2.416   1_545  S
Zr661       O672   2.404   1_545  S
O662        H718   0.990       .  S
O662        H726   0.991       .  S
O663        C683   1.284       .  A
O664        C685   1.278       .  A
O665       Zr675   2.520       .  S
O665        C684   1.301       .  A
O666       Zr674   2.412   1_545  S
O666        C685   1.276       .  A
O667        C684   1.273   1_545  A
O668       Zr676   2.421   1_545  S
O668        C683   1.279       .  A
O669       Zr674   2.398       .  S
O669       Zr676   2.388       .  S
O670       Zr675   2.393       .  S
O670       Zr676   2.392       .  S
O670        H705   0.965       .  S
O671       Zr674   2.405       .  S
O671       Zr691   2.402       .  S
O671        H708   0.965   1_565  S
O672       Zr675   2.391       .  S
O672       Zr691   2.382       .  S
Zr673       O698   2.443       .  S
Zr673       O692   2.414       .  S
Zr673       O700   2.402       .  S
Zr673       O688   2.442       .  S
Zr673       O679   2.402       .  S
Zr673       O680   2.398       .  S
Zr673       O681   2.367       .  S
Zr673       O682   2.394       .  S
Zr674       O693   2.444       .  S
Zr674       O686   2.433       .  S
Zr674       O687   2.429       .  S
Zr674       O680   2.386       .  S
Zr674       O681   2.383       .  S
Zr675       O677   2.436       .  S
Zr675       O699   2.436       .  S
Zr675       O701   2.511       .  S
Zr675       O679   2.403       .  S
Zr675       O682   2.385       .  S
Zr676       O702   2.436       .  S
Zr676       O703   2.436       .  S
Zr676       O678   2.437       .  S
Zr676       O679   2.391       .  S
Zr676       O680   2.410       .  S
O677        H714   0.990       .  S
O678        H709   0.990       .  S
O678        H723   0.990   1_565  S
O680        H706   0.967       .  S
O681       Zr691   2.362       .  S
O682       Zr691   2.380       .  S
O682        H707   0.966       .  S
C683        C837   1.438       .  S
C684        C836   1.453       .  S
C685        C793   1.424       .  S
O686        H722   0.990   1_565  S
O687        C689   1.281       .  A
O688        C689   1.284       .  A
C689        C808   1.440       .  S
O690       Zr691   2.440       .  S
O690        H719   0.990       .  S
Zr691       O694   2.437       .  S
Zr691       O695   2.438       .  S
Zr691       O696   2.429       .  S
O692        C697   1.280       .  A
O693        H710   0.990   1_565  S
O693        H725   0.991   1_565  S
O694        H711   0.990       .  S
O695        H715   0.990       .  S
O695        H724   0.990       .  S
O696        C697   1.282       .  A
C697        C800   1.424       .  S
O698        H717   0.990       .  S
O698        H721   0.990       .  S
O699        H713   0.990       .  S
O699        H720   0.990       .  S
O700        C704   1.278       .  A
O701        C704   1.301       .  A
O702        H712   0.990       .  S
O703        H716   0.990       .  S
C704        C832   1.458       .  S
Zr727       O728   2.447       .  S
Zr727       O729   2.442       .  S
Zr727       O730   2.433       .  S
Zr727       O733   2.392       .  S
Zr727       O735   2.378       .  S
Zr727       O736   2.391       .  S
Zr727       O737   2.416       .  S
Zr727       O738   2.401       .  S
O728        H784   0.991       .  S
O728        H792   0.991       .  S
O729        C749   1.282       .  A
O730        C751   1.277       .  A
O731       Zr741   2.521       .  S
O731        C750   1.301       .  A
O732       Zr740   2.416       .  S
O732        C751   1.277       .  A
O733        C750   1.273       .  A
O734       Zr742   2.417       .  S
O734        C749   1.278       .  A
O735       Zr740   2.399       .  S
O735       Zr742   2.388       .  S
O736       Zr741   2.399       .  S
O736       Zr742   2.394       .  S
O736        H771   0.966       .  S
O737       Zr740   2.405       .  S
O737       Zr757   2.401       .  S
O737        H774   0.965       .  S
O738       Zr741   2.387       .  S
O738       Zr757   2.379       .  S
Zr739       O764   2.444       .  S
Zr739       O758   2.418       .  S
Zr739       O766   2.400       .  S
Zr739       O754   2.441       .  S
Zr739       O745   2.401       .  S
Zr739       O746   2.400       .  S
Zr739       O747   2.367       .  S
Zr739       O748   2.394       .  S
Zr740       O759   2.446       .  S
Zr740       O752   2.434       .  S
Zr740       O753   2.432       .  S
Zr740       O746   2.391       .  S
Zr740       O747   2.382       .  S
Zr741       O743   2.436       .  S
Zr741       O765   2.435       .  S
Zr741       O767   2.510       .  S
Zr741       O745   2.404       .  S
Zr741       O748   2.385       .  S
Zr742       O768   2.437       .  S
Zr742       O769   2.436       .  S
Zr742       O744   2.437       .  S
Zr742       O745   2.390       .  S
Zr742       O746   2.411       .  S
O743        H780   0.990       .  S
O744        H775   0.990       .  S
O744        H789   0.990       .  S
O746        H772   0.967       .  S
O747       Zr757   2.363       .  S
O748       Zr757   2.381       .  S
O748        H773   0.966       .  S
C749        C804   1.434       .  S
C750        C821   1.454       .  S
C751        C796   1.425       .  S
O752        H788   0.990       .  S
O753        C755   1.282       .  A
O754        C755   1.284       .  A
C755        C825   1.439       .  S
O756       Zr757   2.440       .  S
O756        H785   0.990       .  S
Zr757       O760   2.437       .  S
Zr757       O761   2.438       .  S
Zr757       O762   2.428       .  S
O758        C763   1.280       .  A
O759        H776   0.991       .  S
O759        H791   0.991       .  S
O760        H777   0.990       .  S
O761        H781   0.990       .  S
O761        H790   0.990       .  S
O762        C763   1.282       .  A
C763        C797   1.424       .  S
O764        H783   0.990       .  S
O764        H787   0.990       .  S
O765        H779   0.990       .  S
O765        H786   0.990       .  S
O766        C770   1.278       .  A
O767        C770   1.300       .  A
O768        H778   0.990       .  S
O769        H782   0.990       .  S
C770        C820   1.455       .  S
C793        C794   1.199       .  T
C794        C795   1.401       .  S
C795        C796   1.199       .  T
C797        C798   1.199       .  T
C798        C799   1.402       .  S
C799        C800   1.199       .  T
C801        C802   1.206       .  T
C802        C803   1.412       .  S
C803        C804   1.206       .  T
C805        C806   1.208       .  T
C806        C807   1.416       .  S
C807        C808   1.208       .  T
C809        C810   1.201       .  T
C810        C811   1.404       .  S
C811        C812   1.201       .  T
C813        C814   1.199       .  T
C814        C815   1.402       .  S
C815        C816   1.199       .  T
C817        C818   1.219       .  T
C818        C819   1.435       .  S
C819        C820   1.220       .  T
C821        C822   1.221       .  T
C822        C823   1.438       .  S
C823        C824   1.222       .  T
C825        C826   1.208       .  T
C826        C827   1.416       .  S
C827        C828   1.208       .  T
C829        C830   1.221       .  T
C830        C831   1.437       .  S
C831        C832   1.221       .  T
C833        C834   1.221       .  T
C834        C835   1.437       .  S
C835        C836   1.221   1_545  T
C837        C838   1.208       .  T
C838        C839   1.416       .  S
C839        C840   1.209       .  T
C841        C842   1.200       .  T
C842        C843   1.402       .  S
C843        C844   1.200       .  T
C845        C846   1.198       .  T
C846        C847   1.399       .  S
C847        C848   1.198       .  T
C849        C850   1.201       .  T
C850        C851   1.403       .  S
C851        C852   1.201       .  T
C853        C854   1.198       .  T
C854        C855   1.400       .  S
C855        C856   1.198       .  T
C857        C858   1.207       .  T
C858        C859   1.416       .  S
C859        C860   1.208       .  T
C861        C862   1.221   1_455  T
C862        C863   1.438       .  S
C863        C864   1.222       .  T
C865        C866   1.221       .  T
C866        C867   1.437       .  S
C867        C868   1.221       .  T
C869        C870   1.207       .  T
C870        C871   1.414       .  S
C871        C872   1.207       .  T
C873        C874   1.209       .  T
C874        C875   1.417       .  S
C875        C876   1.209       .  T
C877        C878   1.208       .  T
C878        C879   1.416       .  S
C879        C880   1.208       .  T
C881        C882   1.202       .  T
C882        C883   1.405       .  S
C883        C884   1.202       .  T
C885        C886   1.200       .  T
C886        C887   1.402       .  S
C887        C888   1.200       .  T
C889        C890   1.221       .  T
C890        C891   1.438       .  S
C891        C892   1.221       .  T
C893        C894   1.220   1_545  T
C894        C895   1.436       .  S
C895        C896   1.221       .  T
C897        C898   1.208       .  T
C898        C899   1.416       .  S
C899        C900   1.208       .  T
C901        C902   1.222       .  T
C902        C903   1.439       .  S
C903        C904   1.221   1_545  T
C905        C906   1.220       .  T
C906        C907   1.437       .  S
C907        C908   1.221       .  T
C909        C910   1.208       .  T
C910        C911   1.415       .  S
C911        C912   1.208       .  T
C913        C914   1.210       .  T
C914        C915   1.419       .  S
C915        C916   1.210       .  T
C917        C918   1.207       .  T
C918        C919   1.414       .  S
C919        C920   1.207       .  T
C921        C922   1.200       .  T
C922        C923   1.403       .  S
C923        C924   1.200       .  T
C925        C926   1.201       .  T
C926        C927   1.405       .  S
C927        C928   1.201       .  T
C929        C930   1.222   1_455  T
C930        C931   1.439       .  S
C931        C932   1.222       .  T
C933        C934   1.220       .  T
C934        C935   1.436       .  S
C935        C936   1.221   1_554  T
