geometry optimzed in LAMMPS
_audit_creation_date              2020-12-01 
_audit_creation_method            'lammps2cif' 
_symmetry_space_group_name_H-M    'P1' 
_symmetry_Int_Tables_number       1 
_symmetry_cell_setting            triclinic 
loop_ 
_symmetry_equiv_pos_as_xyz 
  x,y,z 
_cell_length_a                    38.60453402 
_cell_length_b                    38.62521694792768 
_cell_length_c                    212.00758253474697 
_cell_angle_alpha                 89.9545010686723 
_cell_angle_beta                  90.11960952402129 
_cell_angle_gamma                 119.99173063058409 
loop_ 
_atom_site_label 
_atom_site_type_symbol 
_atom_site_fract_x 
_atom_site_fract_y 
_atom_site_fract_z 
_atom_site_charge 
Zr1        Zr  0.78870259  0.17104425  0.61437231     2.17500
O2          O  0.80346586  0.21514206  0.60529727    -0.51400
O3          O  0.72349829  0.16242189  0.61649208    -0.74600
O4          O  0.75253134  0.13367473  0.60506071    -0.81400
O5          O  0.84781967  0.26027754  0.62526872    -0.83100
O6          O  0.75193231  0.07446297  0.60479956    -0.78700
O7          O  0.80905530  0.24061535  0.61643034    -0.90400
O8          O  0.69735791  0.11958539  0.62475667    -0.76300
O9          O  0.75119151  0.10271822  0.61748453    -0.85800
O10         O  0.78350700  0.17138505  0.62555383    -0.85500
O11         O  0.82529187  0.14010209  0.61061560    -0.72300
O12         O  0.85554672  0.20476191  0.61838497    -0.84400
Zr13       Zr  0.85257971  0.10606261  0.62928346     2.26400
Zr14       Zr  0.78857548  0.07201960  0.61413573     2.06300
Zr15       Zr  0.85020321  0.20333826  0.62961066     2.10000
Zr16       Zr  0.74679364  0.10318015  0.62861567     1.78800
O17         O  0.91886810  0.25664807  0.63126389    -0.93200
O18         O  0.68708245  0.03837124  0.62700825    -0.41000
O19         O  0.81334869  0.13488220  0.63262321    -0.77600
O20         O  0.78414025  0.07138979  0.62545954    -0.96300
O21         O  0.85587943  0.10517868  0.61805565    -0.89600
O22         O  0.88916641  0.17449120  0.62614104    -0.92500
C23         C  0.69563383  0.14212615  0.62045821     1.01300
C24         C  0.83089691  0.26686560  0.62056454     1.14200
C25         C  0.74263564  0.09977067  0.60253143     1.05000
O26         O  0.72429626  0.01024672  0.61391416    -0.94600
O27         O  0.79903575  0.01758772  0.61760472    -0.90400
O28         O  0.83346370  0.03717550  0.62684881    -0.83500
C29         C  0.81579066  0.01168429  0.62241564     1.11600
O30         O  0.90264131  0.21654290  0.60579352    -0.96600
Zr31       Zr  0.89143237  0.17326021  0.61485099     1.88900
O32         O  0.92354213  0.12646841  0.62756018    -0.73200
O33         O  0.81628976  0.05485462  0.60515057    -0.52500
O34         O  0.90682663  0.14421824  0.60583391    -0.97200
O35         O  0.95130064  0.23857134  0.61599801    -0.54400
O36         O  0.94203598  0.15896335  0.61817848    -0.73800
C37         C  0.94870428  0.14365490  0.62303649     0.98600
O38         O  0.86351948  0.07121115  0.63801668    -0.62600
O39         O  0.82590129  0.23091962  0.63770409    -0.57400
O40         O  0.85493467  0.12700760  0.64031152    -0.94100
O41         O  0.86050328  0.18842276  0.64034191    -0.92500
O42         O  0.73360833  0.13460492  0.63753322    -0.92800
O43         O  0.72829194  0.06195967  0.63807484    -0.91600
C44         C  0.85831530  0.15799567  0.64317123     1.17400
H45         H  0.77021909  0.18569011  0.62685935     0.33400
H46         H  0.77016282  0.04425962  0.62701264     0.44200
H47         H  0.91549356  0.18831341  0.62803207     0.37700
H48         H  0.82676330  0.14123382  0.60606617     0.34200
H49         H  0.66548906  0.04055699  0.62915219     0.26000
H50         H  0.79328173  0.03064576  0.60333321     0.32000
H51         H  0.93615453  0.16075862  0.60528933     0.37900
H52         H  0.70422854  0.12314924  0.63753262     0.32300
H53         H  0.84422164  0.26020209  0.63759545     0.31200
H54         H  0.91637012  0.27811641  0.63338714     0.32900
H55         H  0.97265706  0.23596447  0.61385844     0.31800
H56         H  0.75368953  0.06436726  0.63959069     0.35800
H57         H  0.83753939  0.04661027  0.63876067     0.28600
H58         H  0.77716007  0.20934598  0.60360876     0.32800
H59         H  0.92758376  0.22070588  0.60379291     0.35700
H60         H  0.80010908  0.22703996  0.63609639     0.28300
H61         H  0.88138080  0.06181109  0.63636688     0.41100
H62         H  0.71893152  0.00131457  0.61836198     0.31200
H63         H  0.68092455  0.03773204  0.62245979     0.38800
H64         H  0.95827701  0.24079223  0.62053101     0.30700
H65         H  0.82248827  0.07609880  0.60200012     0.30700
H66         H  0.81456247  0.20491529  0.60206313     0.31000
Zr67       Zr  0.82682238  0.19093512  0.70223649     2.17500
O68         O  0.83185647  0.23800516  0.69409306    -0.51400
O69         O  0.75491904  0.16684055  0.70347638    -0.74600
O70         O  0.81534518  0.16378989  0.69143995    -0.81400
O71         O  0.86655528  0.27683076  0.71416146    -0.83100
O72         O  0.82075985  0.10789174  0.69154177    -0.78700
O73         O  0.83471615  0.25566940  0.70471518    -0.90400
O74         O  0.73345149  0.12801083  0.71225080    -0.76300
O75         O  0.79556199  0.12196430  0.70489818    -0.85800
O76         O  0.81652321  0.18715691  0.71338055    -0.85500
O77         O  0.87534483  0.17215214  0.69923833    -0.72300
O78         O  0.89191872  0.23031266  0.70705041    -0.84400
Zr79       Zr  0.89591546  0.13458370  0.71796042     2.26400
Zr80       Zr  0.84344407  0.10285307  0.70197058     2.06300
Zr81       Zr  0.88079720  0.22567853  0.71818649     2.10000
Zr82       Zr  0.78662766  0.11836509  0.71607261     1.78800
O83         O  0.93526574  0.29398532  0.71968194    -0.93200
O84         O  0.73233443  0.05207982  0.71327996    -0.41000
O85         O  0.85029249  0.15658740  0.72112839    -0.77600
O86         O  0.83145910  0.09581844  0.71310562    -0.96300
O87         O  0.90736545  0.13989372  0.70688204    -0.89600
O88         O  0.92725947  0.20417742  0.71538991    -0.92500
C89         C  0.72801169  0.14587410  0.70759736     1.01300
C90         C  0.84950839  0.28109202  0.70922340     1.14200
C91         C  0.81528129  0.13401202  0.68869176     1.05000
O92         O  0.78168933  0.03984868  0.70033139    -0.94600
O93         O  0.85798783  0.05230645  0.70556430    -0.90400
O94         O  0.88693493  0.06847536  0.71529127    -0.83500
C95         C  0.87236335  0.04487301  0.71049891     1.11600
O96         O  0.95732660  0.25928746  0.69616637    -0.96600
Zr97       Zr  0.93867539  0.20883029  0.70438091     1.88900
O98         O  0.96316700  0.14781178  0.71610376    -0.73200
O99         O  0.88089226  0.08993188  0.69397299    -0.52500
O100        O  0.96321540  0.19272020  0.69488689    -0.97200
O101        O  0.99410355  0.27310617  0.70777499    -0.54400
O102        O  0.98727413  0.18967632  0.70768364    -0.73800
C103        C  0.99010628  0.16772408  0.71197492     0.98600
O104        O  0.88022109  0.09266335  0.72733949    -0.62600
O105        O  0.83896480  0.22891176  0.72649184    -0.57400
O106        O  0.92582911  0.17267411  0.72763951    -0.94100
O107        O  0.91650036  0.22650154  0.72779712    -0.92500
O108        O  0.76229036  0.13567398  0.72546746    -0.92800
O109        O  0.76968916  0.06923147  0.72443994    -0.91600
C110        C  0.92957154  0.20458657  0.73022138     1.17400
H111        H  0.79948347  0.19773997  0.71457298     0.33400
H112        H  0.81941003  0.06810047  0.71433896     0.44200
H113        H  0.95239090  0.21938800  0.71757805     0.37700
H114        H  0.88141074  0.17621564  0.69479708     0.34200
H115        H  0.70915450  0.04870760  0.71576613     0.26000
H116        H  0.86040328  0.06876246  0.69124533     0.32000
H117        H  0.99266341  0.20677952  0.69538674     0.37900
H118        H  0.73281586  0.11867327  0.72525306     0.32300
H119        H  0.84092626  0.21317762  0.73002133     0.31200
H120        H  0.92804189  0.30343695  0.72353190     0.32900
H121        H  0.01144970  0.26659363  0.71036429     0.31800
H122        H  0.79402501  0.08015289  0.72709712     0.35800
H123        H  0.86784925  0.10306922  0.73031312     0.28600
H124        H  0.80662281  0.22437654  0.69164610     0.32800
H125        H  0.98654433  0.27121660  0.69558535     0.35700
H126        H  0.85368296  0.25695634  0.72798019     0.28300
H127        H  0.85774946  0.06621133  0.72608830     0.41100
H128        H  0.77397398  0.02786489  0.70458809     0.31200
H129        H  0.72547838  0.05459468  0.70886479     0.38800
H130        H  0.98218197  0.28357641  0.71081832     0.30700
H131        H  0.89329492  0.11418362  0.69129669     0.30700
H132        H  0.85294109  0.24052581  0.69116103     0.31000
Zr133      Zr  0.83215221  0.59428754  0.61634489     2.17500
O134        O  0.78806128  0.56084590  0.60739746    -0.51400
O135        O  0.84696060  0.54135447  0.61829174    -0.74600
O136        O  0.86911297  0.60009206  0.60670538    -0.81400
O137        O  0.74635244  0.55677141  0.62786843    -0.83100
O138        O  0.92394086  0.66225944  0.60633379    -0.78700
O139        O  0.76400257  0.54160964  0.61847972    -0.90400
O140        O  0.89382206  0.56216820  0.62605641    -0.76300
O141        O  0.90158039  0.63133310  0.61884079    -0.85800
O142        O  0.83702767  0.58933735  0.62749493    -0.85500
O143        O  0.85438325  0.66122031  0.61281139    -0.72300
O144        O  0.79434483  0.62162873  0.62094626    -0.84400
Zr145      Zr  0.89115293  0.72242960  0.63147759     2.26400
Zr146      Zr  0.92365681  0.69856194  0.61572768     2.06300
Zr147      Zr  0.80089562  0.61821380  0.63211043     2.10000
Zr148      Zr  0.90649001  0.62683047  0.62991230     1.78800
O149        O  0.74534883  0.62876244  0.63467528    -0.93200
O150        O  0.97304881  0.63996387  0.62702810    -0.41000
O151        O  0.87023604  0.65527011  0.63456619    -0.77600
O152        O  0.93008676  0.69515040  0.62695022    -0.96300
O153        O  0.88670877  0.72701032  0.62029422    -0.89600
O154        O  0.82176387  0.68516808  0.62891533    -0.92500
C155        C  0.87056374  0.53646458  0.62196700     1.01300
C156        C  0.73904656  0.53467167  0.62296536     1.14200
C157        C  0.90118498  0.62715939  0.60404449     1.05000
O158        O  0.98966031  0.70539932  0.61476467    -0.94600
O159        O  0.97459171  0.76501920  0.61898052    -0.90400
O160        O  0.95754222  0.77651558  0.62868651    -0.83500
C161        C  0.98112809  0.78653160  0.62393177     1.11600
O162        O  0.77177410  0.65924571  0.60878878    -0.96600
Zr163      Zr  0.81758531  0.68881917  0.61768432     1.88900
O164        O  0.86540106  0.76885919  0.63027983    -0.73200
O165        O  0.93230229  0.74059435  0.60662391    -0.52500
O166        O  0.83990237  0.73272931  0.60850098    -0.97200
O167        O  0.75013340  0.67553664  0.62000254    -0.54400
O168        O  0.82669456  0.75139523  0.62148492    -0.73800
C169        C  0.84426274  0.77459100  0.62615687     0.98600
O170        O  0.92425300  0.76920000  0.64015490    -0.62600
O171        O  0.77874908  0.56597669  0.64008796    -0.57400
O172        O  0.87449123  0.70238610  0.64262520    -0.94100
O173        O  0.81777700  0.64173437  0.64290214    -0.92500
O174        O  0.88792877  0.58463229  0.63925677    -0.92800
O175        O  0.95255156  0.65536045  0.63877227    -0.91600
C176        C  0.84673672  0.67215491  0.64562130     1.17400
H177        H  0.82553765  0.56193115  0.62883933     0.33400
H178        H  0.95782798  0.71063460  0.62823139     0.44200
H179        H  0.80680599  0.69531872  0.63110261     0.37700
H180        H  0.85161310  0.66157738  0.60828380     0.34200
H181        H  0.97798821  0.62217984  0.62978847     0.26000
H182        H  0.92900094  0.76268213  0.60830310     0.32000
H183        H  0.82598596  0.74834723  0.60878867     0.37900
H184        H  0.87105987  0.59224442  0.64174050     0.32300
H185        H  0.75014787  0.55712692  0.64077420     0.31200
H186        H  0.72403528  0.61196780  0.63162924     0.32900
H187        H  0.75178035  0.68689338  0.62424933     0.31800
H188        H  0.94686513  0.67571416  0.64054558     0.35800
H189        H  0.95050624  0.77081687  0.64071497     0.28600
H190        H  0.79650291  0.54234662  0.60569253     0.32800
H191        H  0.76236568  0.67817812  0.60774112     0.35700
H192        H  0.77874591  0.54310481  0.63798485     0.28300
H193        H  0.93061060  0.79579780  0.63853918     0.41100
H194        H  0.99947423  0.70784667  0.61915072     0.31200
H195        H  0.96980798  0.62832657  0.62276032     0.38800
H196        H  0.73420422  0.64624085  0.62062348     0.30700
H197        H  0.96110605  0.75324217  0.60559183     0.30700
H198        H  0.79564849  0.58172503  0.60412724     0.31000
Zr199      Zr  0.79142587  0.58245568  0.70461193     2.17500
O200        O  0.74593880  0.53897855  0.69641550    -0.51400
O201        O  0.81387526  0.53302190  0.70566040    -0.74600
O202        O  0.81951704  0.59893887  0.69388217    -0.81400
O203        O  0.70775785  0.53880648  0.71688073    -0.83100
O204        O  0.87491077  0.66073522  0.69399321    -0.78700
O205        O  0.72459513  0.52729064  0.70715393    -0.90400
O206        O  0.85567613  0.55194040  0.71408925    -0.76300
O207        O  0.86059684  0.61884763  0.70736727    -0.85800
O208        O  0.79494969  0.57558011  0.71573671    -0.85500
O209        O  0.81280366  0.65095949  0.70178318    -0.72300
O210        O  0.75397211  0.61057774  0.70936604    -0.84400
Zr211      Zr  0.85052343  0.70694001  0.72067488     2.26400
Zr212      Zr  0.88238833  0.68694583  0.70463479     2.06300
Zr213      Zr  0.75846610  0.60357243  0.72051028     2.10000
Zr214      Zr  0.86356288  0.61239146  0.71852394     1.78800
O215        O  0.69156984  0.59458080  0.72137058    -0.93200
O216        O  0.93175376  0.62859170  0.71615265    -0.41000
O217        O  0.82697757  0.63906647  0.72369701    -0.77600
O218        O  0.88821311  0.68037918  0.71576472    -0.96300
O219        O  0.84687027  0.71511253  0.70960253    -0.89600
O220        O  0.78161923  0.67157794  0.71785044    -0.92500
C221        C  0.83677312  0.52815558  0.70955376     1.01300
C222        C  0.70105454  0.51736422  0.71193494     1.14200
C223        C  0.84884224  0.62903390  0.69112410     1.05000
O224        O  0.94391640  0.68533322  0.70296955    -0.94600
O225        O  0.93413326  0.75076791  0.70878940    -0.90400
O226        O  0.91576137  0.76385282  0.71830448    -0.83500
C227        C  0.94037923  0.77262611  0.71370618     1.11600
O228        O  0.72549828  0.65180575  0.69893833    -0.96600
Zr229      Zr  0.77821345  0.67987149  0.70688524     1.88900
O230        O  0.83927940  0.76244870  0.71910294    -0.73200
O231        O  0.89997626  0.74023482  0.69696021    -0.52500
O232        O  0.79724274  0.71952152  0.69724880    -0.97200
O233        O  0.71656424  0.67646698  0.71045971    -0.54400
O234        O  0.80163936  0.74871618  0.71020273    -0.73800
C235        C  0.82254362  0.77194609  0.71474116     0.98600
O236        O  0.89274932  0.72811039  0.73008191    -0.62600
O237        O  0.74985110  0.55804544  0.72909042    -0.57400
O238        O  0.81091098  0.70047410  0.72999819    -0.94100
O239        O  0.75644247  0.63781942  0.72998204    -0.92500
O240        O  0.84005921  0.56321730  0.72698546    -0.92800
O241        O  0.90643794  0.63662398  0.72780960    -0.91600
C242        C  0.77791413  0.67281588  0.73236632     1.17400
H243        H  0.78363479  0.54786412  0.71692029     0.33400
H244        H  0.91589977  0.69521150  0.71708267     0.44200
H245        H  0.76679514  0.68192129  0.72001578     0.37700
H246        H  0.80879409  0.65352795  0.69735425     0.34200
H247        H  0.93460691  0.60702431  0.71817291     0.26000
H248        H  0.92238037  0.74145291  0.69451279     0.32000
H249        H  0.82398639  0.74268707  0.69816362     0.37900
H250        H  0.85904739  0.55302966  0.72704584     0.32300
H251        H  0.77117190  0.57453746  0.73215701     0.31200
H252        H  0.67914713  0.57595237  0.72495354     0.32900
H253        H  0.72459963  0.69678967  0.71383098     0.31800
H254        H  0.89175261  0.64420652  0.73081264     0.35800
H255        H  0.87978965  0.70508477  0.73300430     0.28600
H256        H  0.76055158  0.52786654  0.69412855     0.32800
H257        H  0.71869243  0.67289247  0.69805472     0.35700
H258        H  0.72472393  0.55266645  0.73117907     0.28300
H259        H  0.91764422  0.72861758  0.72879382     0.41100
H260        H  0.96073465  0.69901421  0.70669583     0.31200
H261        H  0.93157058  0.62348316  0.71157428     0.38800
H262        H  0.70175433  0.65048874  0.71266597     0.30700
H263        H  0.87729182  0.72970012  0.69395532     0.30700
H264        H  0.74317237  0.55685660  0.69335874     0.31000
Zr265      Zr  0.40609493  0.21369120  0.61819783     2.17500
O266        O  0.43980247  0.20402096  0.60922982    -0.51400
O267        O  0.46023802  0.28093582  0.62038805    -0.74600
O268        O  0.40040728  0.24538635  0.60860910    -0.81400
O269        O  0.43824370  0.15716491  0.62913519    -0.83100
O270        O  0.33919748  0.24041343  0.60818260    -0.78700
O271        O  0.45629402  0.19404255  0.62012490    -0.90400
O272        O  0.44208876  0.30493275  0.62876880    -0.76300
O273        O  0.37022155  0.24706636  0.62083847    -0.85800
O274        O  0.41104681  0.22117910  0.62937242    -0.85500
O275        O  0.33884910  0.17097034  0.61453068    -0.72300
O276        O  0.37647363  0.14756354  0.62247995    -0.84400
Zr277      Zr  0.27782846  0.14521943  0.63310276     2.26400
Zr278      Zr  0.30253414  0.20370968  0.61755778     2.06300
Zr279      Zr  0.38017286  0.15511754  0.63365928     2.10000
Zr280      Zr  0.37506034  0.25446974  0.63195066     1.78800
O281        O  0.36908473  0.08866660  0.63610986    -0.93200
O282        O  0.36658611  0.31077737  0.62900307    -0.41000
O283        O  0.34518528  0.18902387  0.63629074    -0.77600
O284        O  0.30645635  0.21207592  0.62881306    -0.96300
O285        O  0.27280943  0.13788687  0.62192613    -0.89600
O286        O  0.31285339  0.11118178  0.63037716    -0.92500
C287        C  0.46686916  0.30812180  0.62446411     1.01300
C288        C  0.46107423  0.17291709  0.62436257     1.14200
C289        C  0.37418060  0.25169188  0.60593242     1.05000
O290        O  0.29506013  0.26244526  0.61651402    -0.94600
O291        O  0.23577293  0.18798931  0.62082880    -0.90400
O292        O  0.22444027  0.15820654  0.63043922    -0.83500
C293        C  0.21421434  0.17205541  0.62575593     1.11600
O294        O  0.33988759  0.09190174  0.61013598    -0.96600
Zr295      Zr  0.30917683  0.10558865  0.61911986     1.88900
O296        O  0.22969532  0.07402171  0.63171616    -0.73200
O297        O  0.25915885  0.16856302  0.60863862    -0.52500
O298        O  0.26383194  0.08529108  0.61011552    -0.97200
O299        O  0.32076385  0.05005693  0.62117079    -0.54400
O300        O  0.24535531  0.05317290  0.62271993    -0.73800
C301        C  0.22270626  0.04767226  0.62745685     0.98600
O302        O  0.23201476  0.13148314  0.64191173    -0.62600
O303        O  0.43493798  0.18406922  0.64127245    -0.57400
O304        O  0.29772522  0.14763383  0.64416836    -0.94100
O305        O  0.35647631  0.14752207  0.64440651    -0.92500
O306        O  0.41388229  0.27459679  0.64167690    -0.92800
O307        O  0.34531664  0.27025328  0.64080530    -0.91600
C308        C  0.32695030  0.14776359  0.64712675     1.17400
H309        H  0.43848304  0.23606933  0.63074403     0.33400
H310        H  0.29146652  0.22459126  0.63015671     0.44200
H311        H  0.30190025  0.08565788  0.63247159     0.37700
H312        H  0.33874415  0.16846397  0.60999386     0.34200
H313        H  0.38332617  0.33212514  0.63204714     0.26000
H314        H  0.25282549  0.18816832  0.60673427     0.32000
H315        H  0.25149912  0.05584818  0.60990229     0.37900
H316        H  0.42263779  0.25469573  0.64226874     0.32300
H317        H  0.44264716  0.16342854  0.64192611     0.31200
H318        H  0.39046505  0.09329344  0.63915361     0.32900
H319        H  0.30048543  0.02769733  0.61859374     0.31800
H320        H  0.32104750  0.24458668  0.64184387     0.35800
H321        H  0.22919827  0.15547502  0.64237223     0.28600
H322        H  0.45827341  0.23110753  0.60757375     0.32800
H323        H  0.31952637  0.06549902  0.60847461     0.35700
H324        H  0.45788122  0.20590440  0.63901315     0.28300
H325        H  0.20552876  0.11015239  0.64042396     0.41100
H326        H  0.29608376  0.27184168  0.62089004     0.31200
H327        H  0.38078680  0.32028665  0.62493215     0.38800
H328        H  0.31199233  0.04187846  0.62557270     0.30700
H329        H  0.27665812  0.16582021  0.60551348     0.30700
H330        H  0.41894900  0.19093002  0.60594252     0.31000
Zr331      Zr  0.40473018  0.15618109  0.70578652     2.17500
O332        O  0.44722470  0.15155283  0.69770998    -0.51400
O333        O  0.45397550  0.22664408  0.70704628    -0.74600
O334        O  0.39370477  0.17465714  0.69525234    -0.81400
O335        O  0.44293092  0.10543671  0.71712241    -0.83100
O336        O  0.33411157  0.17304624  0.69529108    -0.78700
O337        O  0.45813208  0.14263555  0.70816275    -0.90400
O338        O  0.43865906  0.24944022  0.71586966    -0.76300
O339        O  0.37191868  0.19173757  0.70885266    -0.85800
O340        O  0.41106420  0.16275088  0.71697663    -0.85500
O341        O  0.33694798  0.11361533  0.70235493    -0.72300
O342        O  0.37453566  0.08918236  0.70993309    -0.84400
Zr343      Zr  0.27732499  0.08992870  0.72079775     2.26400
Zr344      Zr  0.30421666  0.14959094  0.70554663     2.06300
Zr345      Zr  0.37964939  0.09638602  0.72115608     2.10000
Zr346      Zr  0.37660977  0.19655435  0.72006766     1.78800
O347        O  0.38427854  0.03635625  0.72271231    -0.93200
O348        O  0.36260476  0.25089628  0.71853445    -0.41000
O349        O  0.34516032  0.13041767  0.72437807    -0.77600
O350        O  0.30855578  0.15696931  0.71679081    -0.96300
O351        O  0.27236596  0.08318095  0.70964075    -0.89600
O352        O  0.31157364  0.05514960  0.71791065    -0.92500
C353        C  0.46097265  0.25391492  0.71111937     1.01300
C354        C  0.46575528  0.12366797  0.71239749     1.14200
C355        C  0.36565988  0.17778899  0.69252131     1.05000
O356        O  0.31040364  0.21513114  0.70428094    -0.94600
O357        O  0.24164609  0.14156161  0.70930508    -0.90400
O358        O  0.22330294  0.10329425  0.71817711    -0.83500
C359        C  0.21754058  0.12338984  0.71387030     1.11600
O360        O  0.33986987  0.03018216  0.69884733    -0.96600
Zr361      Zr  0.30610615  0.04821851  0.70680245     1.88900
O362        O  0.22124261  0.02389986  0.71844471    -0.73200
O363        O  0.25327090  0.11849853  0.69736334    -0.52500
O364        O  0.26974976  0.03076735  0.69682997    -0.97200
O365        O  0.30489518  0.98658951  0.70979750    -0.54400
O366        O  0.23666024  0.00300096  0.70940557    -0.73800
C367        C  0.21251536  0.99926828  0.71384456     0.98600
O368        O  0.25098672  0.10448421  0.73028174    -0.62600
O369        O  0.42588209  0.13292176  0.72968756    -0.57400
O370        O  0.28144681  0.05745020  0.73036150    -0.94100
O371        O  0.34240861  0.06160615  0.73061895    -0.92500
O372        O  0.42327340  0.21777989  0.72891646    -0.92800
O373        O  0.35255046  0.21302066  0.72957813    -0.91600
C374        C  0.30779959  0.05102914  0.73296790     1.17400
H375        H  0.43886850  0.17758038  0.71820931     0.33400
H376        H  0.29444668  0.17021330  0.71823185     0.44200
H377        H  0.29963739  0.02926489  0.71990864     0.37700
H378        H  0.33517737  0.10921083  0.69786460     0.34200
H379        H  0.38348080  0.27348767  0.72100339     0.26000
H380        H  0.25181232  0.14086875  0.69534634     0.32000
H381        H  0.24933385  0.03889796  0.69735086     0.37900
H382        H  0.44859367  0.22134918  0.72716032     0.32300
H383        H  0.41045159  0.14037282  0.73255382     0.31200
H384        H  0.39942070  0.04113236  0.72669927     0.32900
H385        H  0.28315080  0.97345829  0.71293328     0.31800
H386        H  0.32476694  0.19074280  0.73008144     0.35800
H387        H  0.27352216  0.11601322  0.73332030     0.28600
H388        H  0.46304074  0.17879100  0.69592352     0.32800
H389        H  0.31969575  0.00323167  0.69734576     0.35700
H390        H  0.42883933  0.11238439  0.73203693     0.28300
H391        H  0.24747150  0.12743796  0.72916917     0.41100
H392        H  0.29156552  0.21159109  0.70083297     0.31200
H393        H  0.36971902  0.25904982  0.71408178     0.38800
H394        H  0.32978944  0.99551254  0.71225183     0.30700
H395        H  0.26515825  0.10922761  0.69411012     0.30700
H396        H  0.42913017  0.13503424  0.69426771     0.31000
Zr397      Zr  0.21800630  0.37949191  0.88556696     2.17500
O398        O  0.20755275  0.41144347  0.89470174    -0.51400
O399        O  0.28487763  0.43232505  0.88314789    -0.74600
O400        O  0.25306463  0.37371909  0.89478164    -0.81400
O401        O  0.16907884  0.41730890  0.87433685    -0.83100
O402        O  0.24651432  0.31178716  0.89484107    -0.78700
O403        O  0.20380983  0.43362330  0.88356176    -0.90400
O404        O  0.30879566  0.41101304  0.87515961    -0.76300
O405        O  0.24964446  0.34241318  0.88260531    -0.85800
O406        O  0.22404652  0.38352889  0.87435924    -0.85500
O407        O  0.17483983  0.31256488  0.88925057    -0.72300
O408        O  0.15123207  0.35141664  0.88155129    -0.84400
Zr409      Zr  0.14485123  0.25061269  0.87060276     2.26400
Zr410      Zr  0.20576304  0.27524792  0.88586651     2.06300
Zr411      Zr  0.15745659  0.35407699  0.87035776     2.10000
Zr412      Zr  0.25570856  0.34653513  0.87148432     1.78800
O413        O  0.09085597  0.34590783  0.86968515    -0.93200
O414        O  0.31086724  0.33458877  0.87370872    -0.41000
O415        O  0.18960920  0.31778523  0.86724103    -0.77600
O416        O  0.21240613  0.27837145  0.87461833    -0.96300
O417        O  0.13935446  0.24653205  0.88181141    -0.89600
O418        O  0.11283911  0.28707510  0.87364925    -0.92500
C419        C  0.31224913  0.43699780  0.87925916     1.01300
C420        C  0.18546928  0.44037205  0.87907240     1.14200
C421        C  0.25957633  0.34681175  0.89716597     1.05000
O422        O  0.26332041  0.26543729  0.88645273    -0.94600
O423        O  0.18798416  0.20855264  0.88250191    -0.90400
O424        O  0.15856226  0.19693143  0.87284218    -0.83500
C425        C  0.17239034  0.18694449  0.87757860     1.11600
O426        O  0.09423499  0.31603540  0.89362616    -0.96600
Zr427      Zr  0.10886702  0.28410753  0.88491560     1.88900
O428        O  0.07350382  0.20292346  0.87241576    -0.73200
O429        O  0.17390759  0.23527499  0.89521581    -0.52500
O430        O  0.09255772  0.24345318  0.89442744    -0.97200
O431        O  0.05005899  0.29061394  0.88291605    -0.54400
O432        O  0.05783062  0.21826201  0.88191962    -0.73800
C433        C  0.04986031  0.19541692  0.87713668     0.98600
O434        O  0.12877971  0.19843242  0.86276037    -0.62600
O435        O  0.18314636  0.40407902  0.86197902    -0.57400
O436        O  0.14504590  0.27259522  0.85965821    -0.94100
O437        O  0.13890096  0.32799776  0.85981470    -0.92500
O438        O  0.27841783  0.39060815  0.86235264    -0.92800
O439        O  0.26927094  0.31738464  0.86229750    -0.91600
C440        C  0.14121841  0.30025537  0.85689714     1.17400
H441        H  0.23931022  0.41083145  0.87294197     0.33400
H442        H  0.22438434  0.26299057  0.87318913     0.44200
H443        H  0.08700028  0.27650347  0.87163554     0.37700
H444        H  0.17328228  0.31236808  0.89380010     0.34200
H445        H  0.33381597  0.35567120  0.87133717     0.26000
H446        H  0.14859348  0.21240504  0.89365902     0.32000
H447        H  0.06309114  0.22617583  0.89435241     0.37900
H448        H  0.25358228  0.38733222  0.86041970     0.32300
H449        H  0.16316557  0.41287539  0.86153995     0.31200
H450        H  0.08856362  0.35938439  0.87350116     0.32900
H451        H  0.02855631  0.26933426  0.88548717     0.31800
H452        H  0.24266425  0.29998050  0.86037835     0.35800
H453        H  0.10530512  0.19559206  0.86040844     0.28600
H454        H  0.23469941  0.43126922  0.89618873     0.32800
H455        H  0.06798553  0.29563320  0.89532660     0.35700
H456        H  0.20718851  0.42750719  0.86374791     0.28300
H457        H  0.15106760  0.20976893  0.85969030     0.41100
H458        H  0.27216562  0.26698738  0.88203096     0.31200
H459        H  0.31770943  0.34214488  0.87819148     0.38800
H460        H  0.04203427  0.28165960  0.87851442     0.30700
H461        H  0.19067934  0.22348081  0.89636696     0.30700
H462        H  0.19666114  0.39060862  0.89801634     0.31000
Zr463      Zr  0.17852275  0.37386892  0.79789383     2.17500
O464        O  0.17966766  0.42221361  0.80543351    -0.51400
O465        O  0.24888882  0.42345886  0.79616602    -0.74600
O466        O  0.19156518  0.36203399  0.80890123    -0.81400
O467        O  0.13232427  0.41021562  0.78527297    -0.83100
O468        O  0.19047373  0.30270955  0.80921998    -0.78700
O469        O  0.16128126  0.42431182  0.79499561    -0.90400
O470        O  0.27159269  0.40509076  0.78765806    -0.76300
O471        O  0.21239660  0.33808147  0.79561411    -0.85800
O472        O  0.18739030  0.37636719  0.78670591    -0.85500
O473        O  0.13323269  0.30720405  0.80153052    -0.72300
O474        O  0.11288872  0.34423494  0.79316716    -0.84400
Zr475      Zr  0.11172229  0.24265046  0.78342122     2.26400
Zr476      Zr  0.16739340  0.27144430  0.79907369     2.06300
Zr477      Zr  0.12235774  0.34568725  0.78197263     2.10000
Zr478      Zr  0.22001068  0.33948005  0.78443651     1.78800
O479        O  0.06425388  0.35315560  0.78003699    -0.93200
O480        O  0.27581941  0.33030191  0.78748446    -0.41000
O481        O  0.15534318  0.30894340  0.77954549    -0.77600
O482        O  0.17754969  0.27238130  0.78793784    -0.96300
O483        O  0.10232983  0.24080699  0.79451703    -0.89600
O484        O  0.07847993  0.27934000  0.78557165    -0.92500
C485        C  0.27586283  0.42952127  0.79207227     1.01300
C486        C  0.14601550  0.43226167  0.79020824     1.14200
C487        C  0.19422930  0.33419958  0.81184787     1.05000
O488        O  0.23214099  0.27614990  0.80057210    -0.94600
O489        O  0.15301414  0.20515798  0.79622942    -0.90400
O490        O  0.11967932  0.18672878  0.78686792    -0.83500
C491        C  0.13595892  0.18039248  0.79169867     1.11600
O492        O  0.04905835  0.31166188  0.80412552    -0.96600
Zr493      Zr  0.06916388  0.27718764  0.79663082     1.88900
O494        O  0.04475129  0.18896346  0.78563367    -0.73200
O495        O  0.13473363  0.22247858  0.80745170    -0.52500
O496        O  0.05027110  0.24422681  0.80687211    -0.97200
O497        O  0.01019704  0.27894521  0.79292693    -0.54400
O498        O  0.02274476  0.20777255  0.79419628    -0.73800
C499        C  0.01916749  0.18235763  0.78998775     0.98600
O500        O  0.12827408  0.21473887  0.77435930    -0.62600
O501        O  0.16126636  0.38911314  0.77331044    -0.57400
O502        O  0.07898848  0.24368522  0.77366410    -0.94100
O503        O  0.08669076  0.30586879  0.77265761    -0.92500
O504        O  0.24037547  0.37935924  0.77482843    -0.92800
O505        O  0.23946474  0.30894610  0.77615215    -0.91600
C506        C  0.07406913  0.26992117  0.77068487     1.17400
H507        H  0.20302581  0.40361705  0.78525239     0.33400
H508        H  0.19003408  0.25685431  0.78688273     0.44200
H509        H  0.05298692  0.26772928  0.78345135     0.37700
H510        H  0.12757468  0.30623971  0.80597096     0.34200
H511        H  0.29899749  0.35101149  0.78510403     0.26000
H512        H  0.15677049  0.22213302  0.80979708     0.32000
H513        H  0.05623441  0.22216010  0.80657495     0.37900
H514        H  0.26971464  0.39074710  0.77461288     0.32300
H515        H  0.16681172  0.37188341  0.77052912     0.31200
H516        H  0.07065564  0.36910534  0.77611342     0.32900
H517        H  0.99556561  0.25517774  0.79018847     0.31800
H518        H  0.21496806  0.28317281  0.77525971     0.35800
H519        H  0.14274134  0.23756843  0.77143923     0.28600
H520        H  0.20664742  0.43526563  0.80736759     0.32800
H521        H  0.02078171  0.29250498  0.80516380     0.35700
H522        H  0.14199366  0.39380345  0.77090187     0.28300
H523        H  0.14914684  0.20896328  0.77586866     0.41100
H524        H  0.23254226  0.25703170  0.79750747     0.31200
H525        H  0.28156531  0.33933798  0.79192615     0.38800
H526        H  0.02075001  0.30196304  0.78999915     0.30700
H527        H  0.12407219  0.23474840  0.81039569     0.30700
H528        H  0.16105803  0.40644427  0.80886706     0.31000
Zr529      Zr  0.59890760  0.80161026  0.88502376     2.17500
O530        O  0.56321701  0.75665165  0.89375075    -0.51400
O531        O  0.54894434  0.82104913  0.88329958    -0.74600
O532        O  0.60754669  0.83794396  0.89479595    -0.81400
O533        O  0.56039027  0.71401040  0.87385726    -0.83100
O534        O  0.66953243  0.89307845  0.89519011    -0.78700
O535        O  0.54315547  0.73569490  0.88264037    -0.90400
O536        O  0.56861941  0.86360702  0.87496068    -0.76300
O537        O  0.63830784  0.87068444  0.88260496    -0.85800
O538        O  0.59395514  0.80633104  0.87389365    -0.85500
O539        O  0.66514658  0.82106142  0.88862460    -0.72300
O540        O  0.62389603  0.76173110  0.88045300    -0.84400
Zr541      Zr  0.72628896  0.85559472  0.86996485     2.26400
Zr542      Zr  0.70509415  0.89032208  0.88577612     2.06300
Zr543      Zr  0.62062118  0.76808868  0.86929916     2.10000
Zr544      Zr  0.63369662  0.87561442  0.87154095     1.78800
O545        O  0.62792431  0.71071924  0.86666258    -0.93200
O546        O  0.64653201  0.94062037  0.87529442    -0.41000
O547        O  0.65976546  0.83727719  0.86682635    -0.77600
O548        O  0.70152543  0.89661503  0.87452513    -0.96300
O549        O  0.73071739  0.85103772  0.88113558    -0.89600
O550        O  0.68702605  0.78641487  0.87250733    -0.92500
C551        C  0.54372327  0.84298856  0.87930980     1.01300
C552        C  0.53711737  0.70896424  0.87850998     1.14200
C553        C  0.63442819  0.87000847  0.89748006     1.05000
O554        O  0.71543358  0.95751165  0.88699129    -0.94600
O555        O  0.77252038  0.93978586  0.88242939    -0.90400
O556        O  0.78153237  0.92113141  0.87268664    -0.83500
C557        C  0.79312273  0.94516728  0.87738869     1.11600
O558        O  0.65680616  0.73318901  0.89209317    -0.96600
Zr559      Zr  0.69044574  0.78225104  0.88374091     1.88900
O560        O  0.77229134  0.82947499  0.87135591    -0.73200
O561        O  0.74729347  0.89443507  0.89462688    -0.52500
O562        O  0.73307857  0.80437690  0.89308603    -0.97200
O563        O  0.67857353  0.71517230  0.88148677    -0.54400
O564        O  0.75306985  0.79090530  0.88014762    -0.73800
C565        C  0.77702915  0.80818780  0.87556716     0.98600
O566        O  0.77350265  0.88800448  0.86133411    -0.62600
O567        O  0.56633499  0.74667298  0.86167128    -0.57400
O568        O  0.70653448  0.83860885  0.85880923    -0.94100
O569        O  0.64435353  0.78392089  0.85850872    -0.92500
O570        O  0.59406354  0.86007940  0.86191104    -0.92800
O571        O  0.66362823  0.92506177  0.86316968    -0.91600
C572        C  0.67566614  0.81172615  0.85580118     1.17400
H573        H  0.56659572  0.79572172  0.87256623     0.33400
H574        H  0.71776433  0.92420929  0.87324289     0.44200
H575        H  0.69652824  0.77086185  0.87032612     0.37700
H576        H  0.66512600  0.81792960  0.89315038     0.34200
H577        H  0.62750673  0.94582678  0.87291422     0.26000
H578        H  0.75444728  0.92011235  0.89670461     0.32000
H579        H  0.75169035  0.79395837  0.89255682     0.37900
H580        H  0.60597817  0.84884001  0.85900437     0.32300
H581        H  0.55741583  0.71823313  0.86081667     0.31200
H582        H  0.60703472  0.69586407  0.86344770     0.32900
H583        H  0.70148548  0.71423005  0.88341199     0.31800
H584        H  0.67765455  0.91501711  0.86047850     0.35800
H585        H  0.77492707  0.91407749  0.86067226     0.28600
H586        H  0.54601351  0.76642903  0.89554822     0.32800
H587        H  0.67774493  0.72930485  0.89412223     0.35700
H588        H  0.54389017  0.74612822  0.86400634     0.28300
H589        H  0.80012446  0.89471570  0.86300540     0.41100
H590        H  0.72018647  0.96856469  0.88266157     0.31200
H591        H  0.63639768  0.93600723  0.87967889     0.38800
H592        H  0.68265412  0.71463037  0.87688958     0.30700
H593        H  0.72901863  0.87375781  0.89763479     0.30700
H594        H  0.58376489  0.76236119  0.89701749     0.31000
Zr595      Zr  0.59312951  0.76783447  0.79609857     2.17500
O596        O  0.54921685  0.71635989  0.80354890    -0.51400
O597        O  0.54486652  0.79173290  0.79538256    -0.74600
O598        O  0.60648394  0.78986313  0.80720223    -0.81400
O599        O  0.55228596  0.68726869  0.78320237    -0.83100
O600        O  0.66839617  0.84485822  0.80775598    -0.78700
O601        O  0.53819719  0.70321851  0.79282037    -0.90400
O602        O  0.56483264  0.83590361  0.78726611    -0.76300
O603        O  0.63152261  0.83813612  0.79433295    -0.85800
O604        O  0.58856240  0.77752888  0.78506397    -0.85500
O605        O  0.65997219  0.78553275  0.79929133    -0.72300
O606        O  0.61991858  0.73136996  0.79064816    -0.84400
Zr607      Zr  0.72036539  0.83174343  0.78105146     2.26400
Zr608      Zr  0.69823144  0.85617197  0.79740841     2.06300
Zr609      Zr  0.61574762  0.74238395  0.77959533     2.10000
Zr610      Zr  0.62773259  0.84745812  0.78326771     1.78800
O611        O  0.60053995  0.67671510  0.77582026    -0.93200
O612        O  0.63969566  0.91314535  0.78648101    -0.41000
O613        O  0.65423480  0.81257699  0.77750150    -0.77600
O614        O  0.69468231  0.86869759  0.78643157    -0.96300
O615        O  0.72553964  0.82132780  0.79198285    -0.89600
O616        O  0.68225266  0.76150136  0.78278923    -0.92500
C617        C  0.54029020  0.81538669  0.79162528     1.01300
C618        C  0.52986433  0.67975161  0.78806658     1.14200
C619        C  0.63590350  0.81793983  0.81029451     1.05000
O620        O  0.70025753  0.91828487  0.80021560    -0.94600
O621        O  0.76427149  0.90809231  0.79425022    -0.90400
O622        O  0.77842245  0.89298878  0.78455782    -0.83500
C623        C  0.78719839  0.91529833  0.78946221     1.11600
O624        O  0.65559226  0.69612522  0.80111525    -0.96600
Zr625      Zr  0.68741940  0.75143808  0.79365585     1.88900
O626        O  0.77315167  0.81612002  0.78212001    -0.73200
O627        O  0.74839932  0.86565876  0.80528721    -0.52500
O628        O  0.72595436  0.76532410  0.80337607    -0.97200
O629        O  0.68084006  0.68932804  0.78961452    -0.54400
O630        O  0.75501151  0.77160131  0.79018071    -0.73800
C631        C  0.77978601  0.79457237  0.78597270     0.98600
O632        O  0.74759066  0.87951889  0.77238401    -0.62600
O633        O  0.57321560  0.74741391  0.77156203    -0.57400
O634        O  0.71644606  0.79847285  0.77119579    -0.94100
O635        O  0.65423867  0.74394833  0.77030564    -0.92500
O636        O  0.58375013  0.83018564  0.77413697    -0.92800
O637        O  0.65867583  0.89936198  0.77525935    -0.91600
C638        C  0.69017549  0.76692444  0.76832982     1.17400
H639        H  0.56116454  0.76747536  0.78380401     0.33400
H640        H  0.71082573  0.89688419  0.78552779     0.44200
H641        H  0.69270184  0.74736596  0.78044340     0.37700
H642        H  0.66108097  0.77915235  0.80365868     0.34200
H643        H  0.61985088  0.91705940  0.78408882     0.26000
H644        H  0.74947260  0.88615337  0.80821191     0.32000
H645        H  0.74442770  0.75494576  0.80263203     0.37900
H646        H  0.57706514  0.85177342  0.77385074     0.32300
H647        H  0.57929895  0.73755644  0.76764686     0.31200
H648        H  0.58326460  0.67166832  0.77207604     0.32900
H649        H  0.70059621  0.69730382  0.78616102     0.31800
H650        H  0.66603992  0.88689112  0.77182898     0.35800
H651        H  0.72610338  0.86932389  0.76916411     0.28600
H652        H  0.53678857  0.72853954  0.80614024     0.32800
H653        H  0.67530437  0.68734215  0.80192459     0.35700
H654        H  0.54571978  0.72642428  0.77267978     0.28300
H655        H  0.74851564  0.90400584  0.77400379     0.41100
H656        H  0.67186471  0.91110200  0.80055926     0.31200
H657        H  0.63034723  0.90963582  0.79090327     0.38800
H658        H  0.65451210  0.67587607  0.78746920     0.30700
H659        H  0.73616091  0.84063733  0.80777988     0.30700
H660        H  0.56714534  0.71257769  0.80646241     0.31000
Zr661      Zr  0.17952933  0.76876847  0.88612155     2.17500
O662        O  0.21973344  0.78749748  0.89572832    -0.51400
O663        O  0.17022373  0.70237308  0.88495140    -0.74600
O664        O  0.13787939  0.73249212  0.89503502    -0.81400
O665        O  0.26932893  0.82144009  0.87563603    -0.83100
O666        O  0.07751640  0.72901095  0.89398067    -0.78700
O667        O  0.24873237  0.78563633  0.88473594    -0.90400
O668        O  0.13337973  0.67628150  0.87604823    -0.76300
O669        O  0.11213824  0.73120358  0.88253938    -0.85800
O670        O  0.18330820  0.76134339  0.87502735    -0.85500
O671        O  0.14778800  0.80640543  0.88898920    -0.72300
O672        O  0.21496759  0.83510184  0.88186715    -0.84400
Zr673      Zr  0.11876997  0.82900335  0.86976223     2.26400
Zr674      Zr  0.08072171  0.76940104  0.88494425     2.06300
Zr675      Zr  0.21601724  0.82740752  0.87070562     2.10000
Zr676      Zr  0.11573374  0.72342547  0.87157538     1.78800
O677        O  0.26722073  0.89718295  0.86934634    -0.93200
O678        O  0.05314177  0.66232501  0.87379076    -0.41000
O679        O  0.14849717  0.78923924  0.86742034    -0.77600
O680        O  0.08264589  0.76119962  0.87376982    -0.96300
O681        O  0.11524524  0.83592998  0.88084946    -0.89600
O682        O  0.18641193  0.86709106  0.87328428    -0.92500
C683        C  0.15265335  0.67447738  0.88086582     1.01300
C684        C  0.27527949  0.80567589  0.88054252     1.14200
C685        C  0.10191937  0.72073764  0.89682304     1.05000
O686        O  0.01531330  0.70921484  0.88543285    -0.94600
O687        O  0.02817751  0.78034052  0.88072320    -0.90400
O688        O  0.04961265  0.81093806  0.87124260    -0.83500
C689        C  0.02356295  0.79567882  0.87563241     1.11600
O690        O  0.22342316  0.88757606  0.89400104    -0.96600
Zr691      Zr  0.18250284  0.87193660  0.88450401     1.88900
O692        O  0.13575012  0.89893546  0.87099214    -0.73200
O693        O  0.06400563  0.79970529  0.89361059    -0.52500
O694        O  0.14782105  0.88493990  0.89295236    -0.97200
O695        O  0.24675113  0.93380250  0.88386218    -0.54400
O696        O  0.16991497  0.92185489  0.88017570    -0.73800
C697        C  0.15311020  0.92588986  0.87525627     0.98600
O698        O  0.09019866  0.84143886  0.86032457    -0.62600
O699        O  0.25282571  0.81256068  0.86285572    -0.57400
O700        O  0.14091570  0.82662548  0.85908316    -0.94100
O701        O  0.20024538  0.82783878  0.85960411    -0.92500
O702        O  0.14727456  0.70868509  0.86284204    -0.92800
O703        O  0.07409429  0.70332195  0.86213817    -0.91600
C704        C  0.17075851  0.82605070  0.85651591     1.17400
H705        H  0.19811558  0.74804397  0.87402767     0.33400
H706        H  0.05595558  0.74693750  0.87204391     0.44200
H707        H  0.20024405  0.89291634  0.87125263     0.37700
H708        H  0.14732297  0.80850892  0.89352533     0.34200
H709        H  0.05538450  0.64107069  0.87154152     0.26000
H710        H  0.03584409  0.78000236  0.89462296     0.32000
H711        H  0.15652657  0.91370498  0.89258662     0.37900
H712        H  0.13269261  0.67914693  0.86254026     0.32300
H713        H  0.28129010  0.83303754  0.86346595     0.31200
H714        H  0.28130635  0.90489257  0.87345623     0.32900
H715        H  0.24200358  0.95454077  0.88573774     0.31800
H716        H  0.08170842  0.72874803  0.85993059     0.35800
H717        H  0.06554908  0.81589368  0.85936338     0.28600
H718        H  0.21446551  0.76195710  0.89765624     0.32800
H719        H  0.22241337  0.91010655  0.89603986     0.35700
H720        H  0.25080198  0.78713803  0.86424814     0.28300
H721        H  0.08070395  0.85985256  0.86165133     0.41100
H722        H  0.01386572  0.69408956  0.88158013     0.31200
H723        H  0.05475281  0.65685239  0.87831450     0.38800
H724        H  0.25073958  0.94047779  0.87931635     0.30700
H725        H  0.07946730  0.79866586  0.89726403     0.30700
H726        H  0.20693286  0.79798078  0.89859988     0.31000
Zr727      Zr  0.19480634  0.78532266  0.79880608     2.17500
O728        O  0.24029490  0.78632106  0.80693072    -0.51400
O729        O  0.17357617  0.71469105  0.79744831    -0.74600
O730        O  0.16580758  0.76925389  0.80933622    -0.81400
O731        O  0.28405162  0.83494336  0.78767684    -0.83100
O732        O  0.10680516  0.76878634  0.80912214    -0.78700
O733        O  0.26189957  0.79910885  0.79675406    -0.90400
O734        O  0.13831802  0.69356259  0.78832387    -0.76300
O735        O  0.12676030  0.74998178  0.79555532    -0.85800
O736        O  0.19576120  0.77958313  0.78761773    -0.85500
O737        O  0.16955786  0.82805593  0.80216154    -0.72300
O738        O  0.23182945  0.85270556  0.79480572    -0.84400
Zr739      Zr  0.13528141  0.85134148  0.78341504     2.26400
Zr740      Zr  0.10127749  0.79226590  0.79878298     2.06300
Zr741      Zr  0.23152384  0.84634421  0.78358510     2.10000
Zr742      Zr  0.12782859  0.74573897  0.78433373     1.78800
O743        O  0.29544186  0.90848974  0.78331895    -0.93200
O744        O  0.06078694  0.68929489  0.78597223    -0.41000
O745        O  0.16345353  0.81164485  0.77996033    -0.77600
O746        O  0.09891259  0.78472089  0.78752463    -0.96300
O747        O  0.13556489  0.85836338  0.79457154    -0.89600
O748        O  0.20362138  0.88668376  0.78667025    -0.92500
C749        C  0.15461197  0.68816899  0.79319254     1.01300
C750        C  0.28832499  0.81706702  0.79248535     1.14200
C751        C  0.13420151  0.76539266  0.81198801     1.05000
O752        O  0.04100267  0.72753630  0.80008808    -0.94600
O753        O  0.04821781  0.80198939  0.79493227    -0.90400
O754        O  0.06741971  0.83730127  0.78576402    -0.83500
C755        C  0.04193090  0.81848402  0.79016944     1.11600
O756        O  0.25154093  0.91090151  0.80635018    -0.96600
Zr757      Zr  0.20354942  0.89336936  0.79775757     1.88900
O758        O  0.14536155  0.91689428  0.78548814    -0.73200
O759        O  0.08011439  0.82314439  0.80677503    -0.52500
O760        O  0.17805230  0.90779136  0.80731622    -0.97200
O761        O  0.26646412  0.95425407  0.79556968    -0.54400
O762        O  0.18182298  0.93990171  0.79450441    -0.73800
C763        C  0.16166405  0.94266435  0.78990044     0.98600
O764        O  0.09552696  0.83835942  0.77380909    -0.62600
O765        O  0.24735166  0.81570038  0.77485434    -0.57400
O766        O  0.17489331  0.88665953  0.77420037    -0.94100
O767        O  0.23230067  0.88363394  0.77423910    -0.92500
O768        O  0.15486744  0.72829959  0.77529047    -0.92800
O769        O  0.08333609  0.72639970  0.77524020    -0.91600
C770        C  0.20875358  0.89468939  0.77183456     1.17400
H771        H  0.20873634  0.76479279  0.78638911     0.33400
H772        H  0.07160479  0.77135250  0.78602831     0.44200
H773        H  0.21781265  0.91279649  0.78475674     0.37700
H774        H  0.17198921  0.83285349  0.80664227     0.34200
H775        H  0.06109763  0.66628636  0.78397328     0.26000
H776        H  0.05807445  0.80049211  0.80906003     0.32000
H777        H  0.18605640  0.93640662  0.80699577     0.37900
H778        H  0.14252218  0.69885624  0.77548540     0.32300
H779        H  0.22159450  0.79952219  0.77262766     0.31200
H780        H  0.30885681  0.90646483  0.77947641     0.32900
H781        H  0.26035468  0.96786440  0.79215153     0.31800
H782        H  0.08436123  0.75142093  0.77388193     0.35800
H783        H  0.10697706  0.82729693  0.77078112     0.28600
H784        H  0.22635163  0.75975401  0.80898894     0.32800
H785        H  0.25588778  0.93668782  0.80803048     0.35700
H786        H  0.26364924  0.83791273  0.77191963     0.28300
H787        H  0.06882388  0.81533629  0.77477912     0.41100
H788        H  0.02584350  0.72319401  0.79611490     0.31200
H789        H  0.05935823  0.68370821  0.79055089     0.38800
H790        H  0.28336604  0.94486062  0.79354618     0.30700
H791        H  0.10240870  0.83522000  0.80985082     0.30700
H792        H  0.24192421  0.80547360  0.81018372     0.31000
Zr793      Zr  0.50133587  0.43000320  0.55335950     2.17500
O794        O  0.54614562  0.44380026  0.56232026    -0.51400
O795        O  0.48699491  0.36224696  0.55209207    -0.74600
O796        O  0.46454921  0.40072172  0.56308129    -0.81400
O797        O  0.58811420  0.47920618  0.54188569    -0.83100
O798        O  0.40763906  0.40460037  0.56302095    -0.78700
O799        O  0.56951745  0.44526605  0.55118404    -0.90400
O800        O  0.44491711  0.33587271  0.54372415    -0.76300
O801        O  0.43212880  0.39582635  0.55065200    -0.85800
O802        O  0.49802070  0.41910419  0.54224408    -0.85500
O803        O  0.47633214  0.47274731  0.55663231    -0.72300
O804        O  0.53832047  0.49447346  0.54856080    -0.84400
Zr805      Zr  0.44073279  0.49526863  0.53770522     2.26400
Zr806      Zr  0.40748254  0.43948369  0.55344189     2.06300
Zr807      Zr  0.53276809  0.48356260  0.53741776     2.10000
Zr808      Zr  0.42897136  0.38540822  0.53962501     1.78800
O809        O  0.58874736  0.54905988  0.53470810    -0.93200
O810        O  0.36418344  0.32889688  0.54248097    -0.41000
O811        O  0.46351142  0.44995749  0.53481477    -0.77600
O812        O  0.40299660  0.42884308  0.54224084    -0.96300
O813        O  0.44377419  0.50471143  0.54884805    -0.89600
O814        O  0.50990685  0.52834019  0.54044062    -0.92500
C815        C  0.46632968  0.33393113  0.54821742     1.01300
C816        C  0.59497741  0.46401786  0.54678255     1.14200
C817        C  0.43140550  0.39421255  0.56554088     1.05000
O818        O  0.34234209  0.38023176  0.55504274    -0.94600
O819        O  0.35381669  0.44977001  0.54964691    -0.90400
O820        O  0.37278354  0.48043354  0.54010693    -0.83500
C821        C  0.34774655  0.46490500  0.54466128     1.11600
O822        O  0.55751158  0.55100143  0.56063600    -0.96600
Zr823      Zr  0.51268164  0.53641756  0.55165724     1.88900
O824        O  0.46517801  0.56762404  0.53885613    -0.73200
O825        O  0.39916725  0.47723273  0.56190735    -0.52500
O826        O  0.48724625  0.55829245  0.56038239    -0.97200
O827        O  0.57995835  0.59191361  0.54975600    -0.54400
O828        O  0.50457243  0.58921722  0.54756827    -0.73800
C829        C  0.48715584  0.59479425  0.54289503     0.98600
O830        O  0.40917441  0.50884255  0.52878257    -0.62600
O831        O  0.55461724  0.45094718  0.52983266    -0.57400
O832        O  0.45944831  0.49230220  0.52670618    -0.94100
O833        O  0.51818324  0.49210863  0.52658632    -0.92500
O834        O  0.45153185  0.36506088  0.53036387    -0.92800
O835        O  0.38104815  0.36216467  0.53096059    -0.91600
C836        C  0.48871502  0.49222661  0.52379866     1.17400
H837        H  0.51035326  0.40363959  0.54107499     0.33400
H838        H  0.37546610  0.41569610  0.54085949     0.44200
H839        H  0.52477914  0.55345382  0.53824619     0.37700
H840        H  0.47852150  0.47630329  0.56115663     0.34200
H841        H  0.36462363  0.30519986  0.54080310     0.26000
H842        H  0.39768354  0.49921144  0.55975277     0.32000
H843        H  0.50557294  0.58752519  0.56067095     0.37900
H844        H  0.46107561  0.38792436  0.52741696     0.32300
H845        H  0.58308891  0.47055382  0.52901031     0.31200
H846        H  0.61007920  0.54375121  0.53329294     0.32900
H847        H  0.57992931  0.61572821  0.55147578     0.31800
H848        H  0.38167831  0.38660199  0.52937829     0.35800
H849        H  0.38454037  0.48320624  0.52785967     0.28600
H850        H  0.53893366  0.41730600  0.56409372     0.32800
H851        H  0.56385523  0.57772271  0.56218116     0.35700
H852        H  0.55515467  0.42901193  0.53216479     0.28300
H853        H  0.39966565  0.52664305  0.53041657     0.41100
H854        H  0.33356089  0.36875777  0.55077246     0.31200
H855        H  0.36536660  0.32651871  0.54711602     0.38800
H856        H  0.58168068  0.59594141  0.54513195     0.30700
H857        H  0.37170143  0.45942595  0.56347973     0.30700
H858        H  0.53758535  0.45653150  0.56553875     0.31000
Zr859      Zr  0.55211288  0.48833515  0.46364634     2.17500
O860        O  0.59805708  0.48194502  0.47085090    -0.51400
O861        O  0.52865486  0.41692675  0.46186252    -0.74600
O862        O  0.52895913  0.47618145  0.47473551    -0.81400
O863        O  0.63611627  0.53865055  0.45121713    -0.83100
O864        O  0.47186786  0.47924596  0.47543928    -0.78700
O865        O  0.62017226  0.50674953  0.46069078    -0.90400
O866        O  0.48176237  0.39505856  0.45412244    -0.76300
O867        O  0.48212238  0.45671747  0.46162756    -0.85800
O868        O  0.54410084  0.47951196  0.45246800    -0.85500
O869        O  0.53341170  0.53549564  0.46749557    -0.72300
O870        O  0.58863203  0.55410192  0.45893313    -0.84400
Zr871      Zr  0.48823911  0.55784275  0.44957595     2.26400
Zr872      Zr  0.46305970  0.50332915  0.46538089     2.06300
Zr873      Zr  0.57915170  0.54455340  0.44775175     2.10000
Zr874      Zr  0.47433733  0.44944588  0.45044025     1.78800
O875        O  0.64331513  0.60042463  0.44450897    -0.93200
O876        O  0.40633565  0.39835370  0.45311279    -0.41000
O877        O  0.50922250  0.51351171  0.44545957    -0.77600
O878        O  0.45205442  0.49280848  0.45425440    -0.96300
O879        O  0.49761996  0.56795078  0.46066660    -0.89600
O880        O  0.55841326  0.58959422  0.45149512    -0.92500
C881        C  0.50317151  0.38963765  0.45815432     1.01300
C882        C  0.64419955  0.52391514  0.45605975     1.14200
C883        C  0.49941405  0.47418521  0.47787464     1.05000
O884        O  0.40010283  0.44247706  0.46753734    -0.94600
O885        O  0.40986505  0.51620651  0.46264837    -0.90400
O886        O  0.42452031  0.54926760  0.45326943    -0.83500
C887        C  0.40181392  0.53274634  0.45807295     1.11600
O888        O  0.61899237  0.61690305  0.47051446    -0.96600
Zr889      Zr  0.56743632  0.59950737  0.46251276     1.88900
O890        O  0.50405785  0.62557947  0.45157017    -0.73200
O891        O  0.45359600  0.54134964  0.47369813    -0.52500
O892        O  0.55213519  0.62147345  0.47235908    -0.97200
O893        O  0.63075149  0.65523971  0.45884648    -0.54400
O894        O  0.54916822  0.64933155  0.45960216    -0.73800
C895        C  0.52622766  0.65263243  0.45554625     0.98600
O896        O  0.43952822  0.54205290  0.44112569    -0.62600
O897        O  0.57757157  0.50031700  0.43942681    -0.57400
O898        O  0.52120801  0.58888967  0.43963747    -0.94100
O899        O  0.57613203  0.58192446  0.43862328    -0.92500
O900        O  0.49226715  0.42464635  0.44116175    -0.92800
O901        O  0.42720302  0.43315216  0.44176983    -0.91600
C902        C  0.55277012  0.59459891  0.43669361     1.17400
H903        H  0.55455256  0.46298350  0.45096163     0.33400
H904        H  0.42385159  0.48057301  0.45328708     0.44200
H905        H  0.57253405  0.61502658  0.44936887     0.37700
H906        H  0.53908152  0.54118508  0.47192667     0.34200
H907        H  0.40335327  0.37323506  0.45136604     0.26000
H908        H  0.42958056  0.52143154  0.47601432     0.32000
H909        H  0.56405488  0.65076651  0.47191333     0.37900
H910        H  0.47372752  0.39539016  0.44118852     0.32300
H911        H  0.58376116  0.51629971  0.43551127     0.31200
H912        H  0.65215458  0.58983902  0.44099188     0.32900
H913        H  0.62352422  0.67240826  0.45635699     0.31800
H914        H  0.42844303  0.45873522  0.44073217     0.35800
H915        H  0.44950482  0.53305374  0.43754752     0.28600
H916        H  0.58220924  0.45562666  0.47293053     0.32800
H917        H  0.63111370  0.64605799  0.47118436     0.35700
H918        H  0.60148748  0.49773179  0.44018934     0.28300
H919        H  0.41520371  0.51740636  0.44250575     0.41100
H920        H  0.40781052  0.42271923  0.46889570     0.31200
H921        H  0.40676998  0.39515111  0.45773901     0.38800
H922        H  0.64057877  0.64335439  0.45568280     0.30700
H923        H  0.47604909  0.54894281  0.47667784     0.30700
H924        H  0.60426256  0.50195330  0.47422378     0.31000
Zr925      Zr  0.54139260  0.04551803  0.55179039     2.17500
O926        O  0.52348985  0.07139213  0.56094339    -0.51400
O927        O  0.60779819  0.10193153  0.55011760    -0.74600
O928        O  0.57512937  0.04085204  0.56120551    -0.81400
O929        O  0.49028350  0.08116577  0.54055909    -0.83100
O930        O  0.57356701  0.98113775  0.56087173    -0.78700
O931        O  0.52362736  0.09732452  0.54991449    -0.90400
O932        O  0.63495333  0.08769079  0.54170822    -0.76300
O933        O  0.57745474  0.01250168  0.54895475    -0.85800
O934        O  0.55125471  0.05380410  0.54067300    -0.85500
O935        O  0.50041437  0.97666166  0.55488751    -0.72300
O936        O  0.47615479  0.01563053  0.54716038    -0.84400
Zr937      Zr  0.47884948  0.92099902  0.53598953     2.26400
Zr938      Zr  0.53591159  0.94340834  0.55158757     2.06300
Zr939      Zr  0.48630464  0.02215662  0.53601706     2.10000
Zr940      Zr  0.58731320  0.02088487  0.53792937     1.78800
O941        O  0.41964247  0.01073504  0.53364452    -0.93200
O942        O  0.64396932  0.01368393  0.54117047    -0.41000
O943        O  0.52238231  0.98953730  0.53326484    -0.77600
O944        O  0.54569947  0.95079105  0.54038870    -0.96300
O945        O  0.47027254  0.91330309  0.54711547    -0.89600
O946        O  0.44284563  0.95383573  0.53882230    -0.92500
C947        C  0.63593303  0.11093720  0.54612306     1.01300
C948        C  0.50436338  0.10318821  0.54546816     1.14200
C949        C  0.58390243  0.01520451  0.56343088     1.05000
O950        O  0.59526967  0.93655162  0.55186606    -0.94600
O951        O  0.52119259  0.87704624  0.54804975    -0.90400
O952        O  0.48678318  0.86487912  0.53885777    -0.83500
C953        C  0.50243425  0.85480728  0.54329171     1.11600
O954        O  0.41796327  0.97027975  0.55956021    -0.96600
Zr955      Zr  0.43562398  0.94717904  0.55004451     1.88900
O956        O  0.40775140  0.87065210  0.53690071    -0.73200
O957        O  0.50532311  0.89885462  0.56053507    -0.52500
O958        O  0.41084344  0.89742226  0.55843412    -0.97200
O959        O  0.38088378  0.95996613  0.54791556    -0.54400
O960        O  0.38484330  0.88461733  0.54583473    -0.73800
C961        C  0.38042727  0.86284250  0.54102488     0.98600
O962        O  0.47943070  0.88223501  0.52693292    -0.62600
O963        O  0.51228965  0.07548489  0.52817943    -0.57400
O964        O  0.47500515  0.93879260  0.52503256    -0.94100
O965        O  0.48380466  0.00144791  0.52518329    -0.92500
O966        O  0.61004898  0.06519627  0.52881409    -0.92800
O967        O  0.60905316  0.99774931  0.52889809    -0.91600
C968        C  0.47979359  0.97056125  0.52227508     1.17400
H969        H  0.56544982  0.08159070  0.53947686     0.33400
H970        H  0.55877749  0.93653377  0.53894161     0.44200
H971        H  0.41760579  0.94288788  0.53661968     0.37700
H972        H  0.49735533  0.97496600  0.55941906     0.34200
H973        H  0.66658798  0.03353798  0.53859530     0.26000
H974        H  0.48224010  0.87464874  0.55873091     0.32000
H975        H  0.43469226  0.90386606  0.56102117     0.37900
H976        H  0.58528356  0.05861637  0.52647203     0.32300
H977        H  0.49229120  0.08435801  0.52793868     0.31200
H978        H  0.41474623  0.00148738  0.52920830     0.32900
H979        H  0.37127047  0.94930874  0.54362857     0.31800
H980        H  0.58392702  0.97649461  0.52699254     0.35800
H981        H  0.50517572  0.88246772  0.52716468     0.28600
H982        H  0.54919680  0.09114349  0.56289843     0.32800
H983        H  0.38890407  0.95201671  0.56014778     0.35700
H984        H  0.53613058  0.09810767  0.53014862     0.28300
H985        H  0.45859645  0.85417397  0.52776071     0.41100
H986        H  0.61786370  0.96408179  0.55244802     0.31200
H987        H  0.65037221  0.02469912  0.54550257     0.38800
H988        H  0.39390006  0.98933946  0.54743206     0.30700
H989        H  0.52467823  0.89016738  0.56169182     0.30700
H990        H  0.51134087  0.04884332  0.56396313     0.31000
Zr991      Zr  0.51372512  0.06450686  0.46424189     2.17500
O992        O  0.50314588  0.10278660  0.47240178    -0.51400
O993        O  0.58435710  0.11615414  0.46345984    -0.74600
O994        O  0.52933253  0.05077937  0.47478209    -0.81400
O995        O  0.47019490  0.10813200  0.45250948    -0.83100
O996        O  0.52385487  0.98941811  0.47455867    -0.78700
O997        O  0.50237564  0.11890050  0.46192275    -0.90400
O998        O  0.61086534  0.09922831  0.45529840    -0.76300
O999        O  0.54850065  0.03046019  0.46148070    -0.85800
O1000       O  0.52485140  0.07375818  0.45317050    -0.85500
O1001       O  0.46804778  0.99621176  0.46708590    -0.72300
O1002       O  0.44869429  0.03674863  0.45939911    -0.84400
Zr1003     Zr  0.45131132  0.94154875  0.44823159     2.26400
Zr1004     Zr  0.50309739  0.96212403  0.46410255     2.06300
Zr1005     Zr  0.46046279  0.04492476  0.44827902     2.10000
Zr1006     Zr  0.55878342  0.03911709  0.45038595     1.78800
O1007       O  0.40187565  0.05193657  0.44658898    -0.93200
O1008       O  0.61268304  0.02516082  0.45247050    -0.41000
O1009       O  0.49477487  0.01019547  0.44526068    -0.77600
O1010       O  0.51635416  0.97036347  0.45301240    -0.96300
O1011       O  0.43884485  0.93295406  0.45924804    -0.89600
O1012       O  0.41673347  0.97626727  0.45092441    -0.92500
C1013       C  0.61354616  0.12241404  0.45982588     1.01300
C1014       C  0.48666078  0.12900596  0.45749857     1.14200
C1015       C  0.52968854  0.02106189  0.47743619     1.05000
O1016       O  0.56394659  0.96063978  0.46659499    -0.94600
O1017       O  0.49681640  0.90104655  0.46000388    -0.90400
O1018       O  0.46325768  0.88659630  0.45066912    -0.83500
C1019       C  0.48107956  0.87900257  0.45513081     1.11600
O1020       O  0.37877556  0.99422562  0.46990515    -0.96600
Zr1021     Zr  0.40466921  0.96777317  0.46189713     1.88900
O1022       O  0.38453818  0.88486365  0.44987468    -0.73200
O1023       O  0.46218298  0.90771235  0.47131161    -0.52500
O1024       O  0.38334111  0.92629128  0.47135376    -0.97200
O1025       O  0.34802093  0.97430913  0.45834171    -0.54400
O1026       O  0.35801477  0.90117071  0.45812945    -0.73800
C1027       C  0.35650142  0.87702188  0.45384769     0.98600
O1028       O  0.46868811  0.91692467  0.43883337    -0.62600
O1029       O  0.49972091  0.09200348  0.44001547    -0.57400
O1030       O  0.41975470  0.94797764  0.43872883    -0.94100
O1031       O  0.42700168  0.01024873  0.43855979    -0.92500
O1032       O  0.58430967  0.09064732  0.44226547    -0.92800
O1033       O  0.57786748  0.01667427  0.44096584    -0.91600
C1034       C  0.41468915  0.97535420  0.43618455     1.17400
H1035       H  0.54075924  0.10181412  0.45212074     0.33400
H1036       H  0.52989016  0.95633262  0.45166848     0.44200
H1037       H  0.39163456  0.96549626  0.44870444     0.37700
H1038       H  0.46210601  0.99355617  0.47153543     0.34200
H1039       H  0.63665954  0.04783405  0.45054621     0.26000
H1040       H  0.48124699  0.90132206  0.47340951     0.32000
H1041       H  0.35381357  0.91036368  0.47104304     0.37900
H1042       H  0.61348021  0.10082500  0.44216188     0.32300
H1043       H  0.50850266  0.07704414  0.43728877     0.31200
H1044       H  0.40996710  0.07254110  0.44326092     0.32900
H1045       H  0.33321946  0.95223426  0.45530581     0.31800
H1046       H  0.55335409  0.99177675  0.43971768     0.35800
H1047       H  0.47937549  0.93944815  0.43580573     0.28600
H1048       H  0.52913883  0.11819750  0.47460522     0.32800
H1049       H  0.35058639  0.97327900  0.47060663     0.35700
H1050       H  0.47988419  0.09482920  0.43743120     0.28300
H1051       H  0.49243965  0.91492307  0.44002453     0.41100
H1052       H  0.58407580  0.98872912  0.46756710     0.31200
H1053       H  0.61746617  0.02921174  0.45707056     0.38800
H1054       H  0.35998374  0.99882817  0.45573402     0.30700
H1055       H  0.45403266  0.92003288  0.47465824     0.30700
H1056       H  0.48498386  0.08294029  0.47552189     0.31000
Zr1057     Zr  0.92600128  0.47232935  0.55126868     2.17500
O1058       O  0.89323223  0.42663070  0.56005251    -0.51400
O1059       O  0.87244052  0.48659911  0.54933202    -0.74600
O1060       O  0.93193386  0.50764760  0.56112801    -0.81400
O1061       O  0.88995626  0.38881239  0.53929712    -0.83100
O1062       O  0.99267239  0.56449355  0.56149065    -0.78700
O1063       O  0.87327544  0.40407631  0.54875030    -0.90400
O1064       O  0.89125115  0.53126327  0.54127679    -0.76300
O1065       O  0.96111870  0.54197242  0.54877830    -0.85800
O1066       O  0.92133399  0.47713679  0.54012217    -0.85500
O1067       O  0.99355412  0.49708114  0.55483578    -0.72300
O1068       O  0.95578258  0.43659044  0.54671190    -0.84400
Zr1069     Zr  0.05461785  0.53503321  0.53623024     2.26400
Zr1070     Zr  0.02893437  0.56649882  0.55195383     2.06300
Zr1071     Zr  0.95219605  0.44286611  0.53556173     2.10000
Zr1072     Zr  0.95690611  0.54655125  0.53767567     1.78800
O1073       O  0.96192287  0.38600384  0.53376007    -0.93200
O1074       O  0.96798003  0.61249114  0.54047358    -0.41000
O1075       O  0.98713782  0.51199314  0.53305430    -0.77600
O1076       O  0.02540746  0.57234444  0.54071716    -0.96300
O1077       O  0.05959672  0.53152013  0.54741475    -0.89600
O1078       O  0.01943376  0.46561719  0.53876371    -0.92500
C1079       C  0.86629954  0.50856190  0.54546795     1.01300
C1080       C  0.86697092  0.38037508  0.54407071     1.14200
C1081       C  0.95810285  0.54018916  0.56381225     1.05000
O1082       O  0.03274953  0.63090343  0.55345357    -0.94600
O1083       O  0.09375800  0.61986669  0.54849704    -0.90400
O1084       O  0.10764586  0.60127998  0.53909956    -0.83500
C1085       C  0.11618014  0.62582198  0.54368422     1.11600
O1086       O  0.99369326  0.41551802  0.55871674    -0.96600
Zr1087     Zr  0.02354257  0.46240942  0.54999516     1.88900
O1088       O  0.10291127  0.51160036  0.53737990    -0.73200
O1089       O  0.07448732  0.57749336  0.56067488    -0.52500
O1090       O  0.06984535  0.49080039  0.55883277    -0.97200
O1091       O  0.01588632  0.39632762  0.54847993    -0.54400
O1092       O  0.08539804  0.47101132  0.54592528    -0.73800
C1093       C  0.10860091  0.48953892  0.54131197     0.98600
O1094       O  0.09985524  0.56976379  0.52747147    -0.62600
O1095       O  0.90125979  0.41934461  0.52730328    -0.57400
O1096       O  0.03591367  0.51822769  0.52507915    -0.94100
O1097       O  0.97695669  0.45966182  0.52489645    -0.92500
O1098       O  0.91476344  0.52646802  0.52828486    -0.92800
O1099       O  0.98496510  0.59339490  0.52892855    -0.91600
C1100       C  0.00650896  0.48914278  0.52214339     1.17400
H1101       H  0.89390652  0.46483040  0.53874023     0.33400
H1102       H  0.04009240  0.60004557  0.53942207     0.44200
H1103       H  0.03012423  0.45109562  0.53658373     0.37700
H1104       H  0.99403170  0.49428750  0.55936164     0.34200
H1105       H  0.94477732  0.61339505  0.53866505     0.26000
H1106       H  0.07880775  0.60248716  0.56268438     0.32000
H1107       H  0.08844076  0.48029585  0.55838925     0.37900
H1108       H  0.90276186  0.54391372  0.52822634     0.32300
H1109       H  0.89318384  0.39094234  0.52661029     0.31200
H1110       H  0.93898124  0.36748421  0.53109688     0.32900
H1111       H  0.03987202  0.39781047  0.55045490     0.31800
H1112       H  0.00261241  0.58554337  0.52673268     0.35800
H1113       H  0.10117599  0.59596742  0.52710768     0.28600
H1114       H  0.87383746  0.43385246  0.56176880     0.32800
H1115       H  0.01618687  0.41491150  0.56086401     0.35700
H1116       H  0.87757736  0.41867154  0.52922487     0.28300
H1117       H  0.12676912  0.57606781  0.52893295     0.41100
H1118       H  0.03967691  0.64389302  0.54925894     0.31200
H1119       H  0.96375673  0.61139127  0.54508985     0.38800
H1120       H  0.01963089  0.39443959  0.54390114     0.30700
H1121       H  0.05841003  0.55628278  0.56377245     0.30700
H1122       H  0.91398485  0.43454637  0.56336257     0.31000
Zr1123     Zr  0.94070526  0.45775398  0.46363299     2.17500
O1124       O  0.90094609  0.41208057  0.47206155    -0.51400
O1125       O  0.89185204  0.48061923  0.46234282    -0.74600
O1126       O  0.95717093  0.48884167  0.47416216    -0.81400
O1127       O  0.89901436  0.36683247  0.45285375    -0.83100
O1128       O  0.01793261  0.54539061  0.47364276    -0.78700
O1129       O  0.88481965  0.39085371  0.46168300    -0.90400
O1130       O  0.90660295  0.51663738  0.45328859    -0.76300
O1131       O  0.97349916  0.52516505  0.46000375    -0.85800
O1132       O  0.93220967  0.45426663  0.45244609    -0.85500
O1133       O  0.00974339  0.48307944  0.46652279    -0.72300
O1134       O  0.97045912  0.41996321  0.45960216    -0.84400
Zr1135     Zr  0.06378493  0.51212291  0.44758387     2.26400
Zr1136     Zr  0.04206747  0.55094305  0.46286635     2.06300
Zr1137     Zr  0.96216341  0.41754170  0.44838137     2.10000
Zr1138     Zr  0.96593591  0.52125115  0.44878746     1.78800
O1139       O  0.95413892  0.35092491  0.44787705    -0.93200
O1140       O  0.98013204  0.59013962  0.44926963    -0.41000
O1141       O  0.99525200  0.48451111  0.44446629    -0.77600
O1142       O  0.03474522  0.55004206  0.45162203    -0.96300
O1143       O  0.07218574  0.51487237  0.45871717    -0.89600
O1144       O  0.03097650  0.44458803  0.45117091    -0.92500
C1145       C  0.88498725  0.50078177  0.45817423     1.01300
C1146       C  0.87659886  0.36346540  0.45755770     1.14200
C1147       C  0.98728733  0.51934261  0.47671469     1.05000
O1148       O  0.03236982  0.60858290  0.46303384    -0.94600
O1149       O  0.10538992  0.60128164  0.45848181    -0.90400
O1150       O  0.11989372  0.57909987  0.44946229    -0.83500
C1151       C  0.12778056  0.60574190  0.45371741     1.11600
O1152       O  0.01352593  0.40168144  0.47111686    -0.96600
Zr1153     Zr  0.04000603  0.44779382  0.46223558     1.88900
O1154       O  0.12107616  0.50448739  0.44982222    -0.73200
O1155       O  0.09688382  0.58176901  0.47046015    -0.52500
O1156       O  0.08249992  0.47528921  0.47152031    -0.97200
O1157       O  0.03641960  0.38413770  0.46009104    -0.54400
O1158       O  0.10870278  0.47049504  0.45906703    -0.73800
C1159       C  0.13145490  0.49003535  0.45442044     0.98600
O1160       O  0.08439482  0.55014247  0.43777798    -0.62600
O1161       O  0.91673948  0.40506538  0.43958620    -0.57400
O1162       O  0.05818627  0.46981454  0.43862509    -0.94100
O1163       O  0.99685883  0.41360049  0.43899075    -0.92500
O1164       O  0.91356381  0.48920414  0.44085908    -0.92800
O1165       O  0.98654446  0.55656622  0.43875538    -0.91600
C1166       C  0.03129642  0.43572011  0.43643495     1.17400
H1167       H  0.90421702  0.44139798  0.45133981     0.33400
H1168       H  0.04873865  0.57691327  0.44996251     0.44200
H1169       H  0.04224629  0.42965498  0.44930820     0.37700
H1170       H  0.01318955  0.48102126  0.47098329     0.34200
H1171       H  0.95643458  0.58949685  0.44733923     0.26000
H1172       H  0.09346110  0.60259901  0.47261596     0.32000
H1173       H  0.09974686  0.50407875  0.47057771     0.37900
H1174       H  0.90425297  0.50850133  0.44006047     0.32300
H1175       H  0.91573809  0.38222929  0.43730372     0.31200
H1176       H  0.93556695  0.33773235  0.44430369     0.32900
H1177       H  0.05927520  0.39068319  0.45726677     0.31800
H1178       H  0.99487780  0.54069381  0.43616176     0.35800
H1179       H  0.06131344  0.53575014  0.43489113     0.28600
H1180       H  0.88883221  0.42557724  0.47439673     0.32800
H1181       H  0.03593982  0.39830281  0.47263333     0.35700
H1182       H  0.88996413  0.39391134  0.44152946     0.28300
H1183       H  0.08457453  0.57532669  0.43873055     0.41100
H1184       H  0.01960259  0.60705286  0.46714842     0.31200
H1185       H  0.97820506  0.59504790  0.45380203     0.38800
H1186       H  0.01247117  0.36942249  0.45738584     0.30700
H1187       H  0.09095906  0.56121040  0.47372530     0.30700
H1188       H  0.92049218  0.41140313  0.47501957     0.31000
Zr1189     Zr  0.14476857  0.25027105  0.28242613     2.17500
O1190       O  0.09982117  0.21826336  0.27352661    -0.51400
O1191       O  0.16033016  0.19808581  0.28434744    -0.74600
O1192       O  0.18159304  0.25554959  0.27285071    -0.81400
O1193       O  0.05655841  0.21304894  0.29323947    -0.83100
O1194       O  0.23974960  0.31502141  0.27276529    -0.78700
O1195       O  0.07825457  0.19551658  0.28449688    -0.90400
O1196       O  0.20155342  0.21567361  0.29286047    -0.76300
O1197       O  0.21325431  0.28433917  0.28549448    -0.85800
O1198       O  0.14504467  0.24461052  0.29361378    -0.85500
O1199       O  0.17015109  0.31717232  0.27874543    -0.72300
O1200       O  0.10676520  0.27913494  0.28639850    -0.84400
Zr1201     Zr  0.20331146  0.37851826  0.29734433     2.26400
Zr1202     Zr  0.23848246  0.35159883  0.28210747     2.06300
Zr1203     Zr  0.10926251  0.27557639  0.29760826     2.10000
Zr1204     Zr  0.21348973  0.27990643  0.29665870     1.78800
O1205       O  0.05300341  0.28678956  0.29895638    -0.93200
O1206       O  0.28033748  0.28928948  0.29534082    -0.41000
O1207       O  0.17793224  0.31079627  0.30056803    -0.77600
O1208       O  0.24108088  0.34838990  0.29341638    -0.96300
O1209       O  0.20242389  0.38247845  0.28612504    -0.89600
O1210       O  0.13432760  0.34341571  0.29436039    -0.92500
C1211       C  0.18117318  0.19170064  0.28838949     1.01300
C1212       C  0.05164005  0.18941279  0.28863359     1.14200
C1213       C  0.21508377  0.28082481  0.27034640     1.05000
O1214       O  0.30391191  0.35668920  0.28178522    -0.94600
O1215       O  0.29005110  0.41678836  0.28549585    -0.90400
O1216       O  0.27193387  0.43032114  0.29496684    -0.83500
C1217       C  0.29645597  0.43886034  0.29035788     1.11600
O1218       O  0.08890587  0.31548320  0.27417466    -0.96600
Zr1219     Zr  0.13390905  0.34679251  0.28309391     1.88900
O1220       O  0.18214270  0.42823099  0.29542601    -0.73200
O1221       O  0.25157817  0.39522697  0.27304255    -0.52500
O1222       O  0.15866032  0.38844467  0.27370557    -0.97200
O1223       O  0.06869397  0.34033633  0.28511293    -0.54400
O1224       O  0.14858303  0.41241679  0.28612225    -0.73800
C1225       C  0.16491122  0.43560356  0.29082949     0.98600
O1226       O  0.23381280  0.42500233  0.30612028    -0.62600
O1227       O  0.08041635  0.22473717  0.30582474    -0.57400
O1228       O  0.18378014  0.35737956  0.30839253    -0.94100
O1229       O  0.12401849  0.29949219  0.30840980    -0.92500
O1230       O  0.18381488  0.23669259  0.30578880    -0.92800
O1231       O  0.25552356  0.30563356  0.30601503    -0.91600
C1232       C  0.15375989  0.32844328  0.31125874     1.17400
H1233       H  0.13232621  0.21704069  0.29493325     0.33400
H1234       H  0.26844913  0.36284309  0.29490571     0.44200
H1235       H  0.11975272  0.35476580  0.29632568     0.37700
H1236       H  0.16853518  0.31744982  0.27419784     0.34200
H1237       H  0.28061704  0.26828167  0.29798532     0.26000
H1238       H  0.27526438  0.39665341  0.27098465     0.32000
H1239       H  0.14253693  0.40182116  0.27337618     0.37900
H1240       H  0.19618900  0.21959460  0.30590308     0.32300
H1241       H  0.05137530  0.21524513  0.30575005     0.31200
H1242       H  0.04393919  0.27828415  0.30334074     0.32900
H1243       H  0.07219819  0.35640683  0.28894402     0.31800
H1244       H  0.25366548  0.32938202  0.30724362     0.35800
H1245       H  0.25932525  0.42564717  0.30701210     0.28600
H1246       H  0.10877073  0.20093327  0.27151989     0.32800
H1247       H  0.07869525  0.33363688  0.27304143     0.35700
H1248       H  0.08277269  0.20189347  0.30424190     0.28300
H1249       H  0.24178775  0.45176936  0.30438513     0.41100
H1250       H  0.31147792  0.35715537  0.28626244     0.31200
H1251       H  0.28078869  0.28074662  0.29095448     0.38800
H1252       H  0.05158355  0.31228089  0.28648757     0.30700
H1253       H  0.22925671  0.37958297  0.27007947     0.30700
H1254       H  0.10646727  0.24002599  0.27045570     0.31000
Zr1255     Zr  0.12902545  0.26289138  0.37071778     2.17500
O1256       O  0.08478701  0.21465000  0.36287162    -0.51400
O1257       O  0.14991184  0.21233241  0.37189612    -0.74600
O1258       O  0.15316350  0.27920437  0.35970109    -0.81400
O1259       O  0.04368247  0.22414343  0.38284003    -0.83100
O1260       O  0.21079080  0.33905905  0.35960958    -0.78700
O1261       O  0.05952451  0.21382463  0.37295060    -0.90400
O1262       O  0.19717204  0.23394893  0.37957033    -0.76300
O1263       O  0.19866761  0.29857408  0.37313669    -0.85800
O1264       O  0.13421896  0.25639352  0.38187025    -0.85500
O1265       O  0.15032266  0.33096905  0.36770505    -0.72300
O1266       O  0.09291142  0.29105647  0.37588231    -0.84400
Zr1267     Zr  0.19212259  0.38807229  0.38635214     2.26400
Zr1268     Zr  0.22046742  0.36633587  0.37019767     2.06300
Zr1269     Zr  0.09949210  0.28534992  0.38704656     2.10000
Zr1270     Zr  0.20366706  0.29307900  0.38429029     1.78800
O1271       O  0.03341624  0.27255595  0.39015972    -0.93200
O1272       O  0.27233892  0.30927992  0.38231959    -0.41000
O1273       O  0.16888846  0.32089834  0.38971291    -0.77600
O1274       O  0.22871419  0.36084494  0.38128778    -0.96300
O1275       O  0.18568698  0.39493365  0.37531350    -0.89600
O1276       O  0.12243032  0.35284775  0.38402392    -0.92500
C1277       C  0.17536169  0.20874145  0.37537098     1.01300
C1278       C  0.03543011  0.20447471  0.37763721     1.14200
C1279       C  0.18305154  0.30812783  0.35682121     1.05000
O1280       O  0.28037684  0.36208964  0.36828115    -0.94600
O1281       O  0.27288051  0.43098826  0.37396537    -0.90400
O1282       O  0.25637241  0.44460210  0.38358856    -0.83500
C1283       C  0.27995486  0.45319210  0.37886096     1.11600
O1284       O  0.06363350  0.32986314  0.36510258    -0.96600
Zr1285     Zr  0.11617201  0.35929512  0.37307041     1.88900
O1286       O  0.17942651  0.44245851  0.38492984    -0.73200
O1287       O  0.24000772  0.41886992  0.36231152    -0.52500
O1288       O  0.13342292  0.40008641  0.36356738    -0.97200
O1289       O  0.05147090  0.34851922  0.37659782    -0.54400
O1290       O  0.13555787  0.42629585  0.37678406    -0.73800
C1291       C  0.15867431  0.45023097  0.38108060     0.98600
O1292       O  0.23703564  0.41218461  0.39544848    -0.62600
O1293       O  0.10100724  0.24171225  0.39521126    -0.57400
O1294       O  0.15681833  0.38524005  0.39595955    -0.94100
O1295       O  0.10051210  0.32404200  0.39636655    -0.92500
O1296       O  0.18064460  0.24230296  0.39250642    -0.92800
O1297       O  0.24654287  0.31781690  0.39357767    -0.91600
C1298       C  0.12396929  0.35938714  0.39857583     1.17400
H1299       H  0.12282139  0.22868804  0.38304461     0.33400
H1300       H  0.25664726  0.37574445  0.38244904     0.44200
H1301       H  0.10836552  0.36394255  0.38622779     0.37700
H1302       H  0.14537677  0.33360758  0.36332578     0.34200
H1303       H  0.27512317  0.28828289  0.38455820     0.26000
H1304       H  0.25992131  0.41697933  0.35961499     0.32000
H1305       H  0.15924420  0.42429427  0.36456255     0.37900
H1306       H  0.20114629  0.23406540  0.39268291     0.32300
H1307       H  0.11967205  0.26013548  0.39844081     0.31200
H1308       H  0.02578091  0.25385990  0.39376695     0.32900
H1309       H  0.05767416  0.37010753  0.37967788     0.31800
H1310       H  0.23142282  0.32453829  0.39662983     0.35800
H1311       H  0.22504252  0.39018903  0.39856770     0.28600
H1312       H  0.10116771  0.20566409  0.36056341     0.32800
H1313       H  0.05581235  0.35021533  0.36422029     0.35700
H1314       H  0.07436447  0.22963867  0.39722638     0.28300
H1315       H  0.26158996  0.41233722  0.39406089     0.41100
H1316       H  0.27064370  0.33582997  0.36621642     0.31200
H1317       H  0.27286018  0.30328064  0.37779324     0.38800
H1318       H  0.04024082  0.32382866  0.37916476     0.30700
H1319       H  0.21621364  0.41000423  0.35957788     0.30700
H1320       H  0.07870420  0.23003766  0.35976127     0.31000
Zr1321     Zr  0.10484689  0.82627863  0.28101950     2.17500
O1322       O  0.11533283  0.86722257  0.27167535    -0.51400
O1323       O  0.03632511  0.80982582  0.28252522    -0.74600
O1324       O  0.07664410  0.78544520  0.27161398    -0.81400
O1325       O  0.15263241  0.91605282  0.29180249    -0.83100
O1326       O  0.08679889  0.73225475  0.27179214    -0.78700
O1327       O  0.11987032  0.89530003  0.28242478    -0.90400
O1328       O  0.01176593  0.76901010  0.29105735    -0.76300
O1329       O  0.07468060  0.75787553  0.28407467    -0.85800
O1330       O  0.09424304  0.82483851  0.29212014    -0.85500
O1331       O  0.15114747  0.80488521  0.27807226    -0.72300
O1332       O  0.16895013  0.86693827  0.28570588    -0.84400
Zr1333     Zr  0.17657164  0.77548642  0.29728349     2.26400
Zr1334     Zr  0.12186011  0.73685943  0.28159811     2.06300
Zr1335     Zr  0.15871112  0.86346991  0.29682605     2.10000
Zr1336     Zr  0.06391455  0.75644819  0.29508476     1.78800
O1337       O  0.22296267  0.92285989  0.29897038    -0.93200
O1338       O  0.01125154  0.68931009  0.29230762    -0.41000
O1339       O  0.12833698  0.79512115  0.29983934    -0.77600
O1340       O  0.11057659  0.73369572  0.29277669    -0.96300
O1341       O  0.18656134  0.77747459  0.28617400    -0.89600
O1342       O  0.20659766  0.84388905  0.29420912    -0.92500
C1343       C  0.00858436  0.78926809  0.28649868     1.01300
C1344       C  0.13823322  0.92184548  0.28672179     1.14200
C1345       C  0.07322411  0.75327662  0.26923360     1.05000
O1346       O  0.06336350  0.67073469  0.28035946    -0.94600
O1347       O  0.13943761  0.68842683  0.28560427    -0.90400
O1348       O  0.16539970  0.70834124  0.29543006    -0.83500
C1349       C  0.15392911  0.68372893  0.29079151     1.11600
O1350       O  0.23122025  0.88878790  0.27379428    -0.96600
Zr1351     Zr  0.21470434  0.84538030  0.28299780     1.88900
O1352       O  0.24911682  0.80157760  0.29592399    -0.73200
O1353       O  0.16207193  0.72861171  0.27354462    -0.52500
O1354       O  0.23839639  0.82065558  0.27441292    -0.97200
O1355       O  0.26476239  0.91507946  0.28496451    -0.54400
O1356       O  0.26977788  0.84194873  0.28732606    -0.73800
C1357       C  0.27602271  0.82454801  0.29193108     0.98600
O1358       O  0.19266842  0.74810493  0.30649107    -0.62600
O1359       O  0.12562014  0.88641752  0.30412459    -0.57400
O1360       O  0.17269460  0.79592697  0.30813749    -0.94100
O1361       O  0.16764471  0.85200899  0.30776278    -0.92500
O1362       O  0.03897558  0.77684217  0.30405065    -0.92800
O1363       O  0.04397507  0.71185178  0.30416028    -0.91600
C1364       C  0.16989802  0.82446273  0.31078824     1.17400
H1365       H  0.07783436  0.83625182  0.29320915     0.33400
H1366       H  0.09892831  0.70651873  0.29426460     0.44200
H1367       H  0.23153539  0.86027680  0.29640677     0.37700
H1368       H  0.15462925  0.80636393  0.27354965     0.34200
H1369       H  0.98762142  0.68537880  0.29472225     0.26000
H1370       H  0.14456477  0.70141782  0.27184119     0.32000
H1371       H  0.26794670  0.83631650  0.27468067     0.37900
H1372       H  0.06324434  0.79554446  0.30645059     0.32300
H1373       H  0.14524133  0.91496822  0.30488330     0.31200
H1374       H  0.21916474  0.93314909  0.30303111     0.32900
H1375       H  0.27673422  0.91515902  0.28910156     0.31800
H1376       H  0.06844344  0.72235139  0.30678135     0.35800
H1377       H  0.16811137  0.72248099  0.30744084     0.28600
H1378       H  0.08826986  0.85831512  0.26996371     0.32800
H1379       H  0.25958294  0.89784078  0.27283093     0.35700
H1380       H  0.10390606  0.88669741  0.30167443     0.28300
H1381       H  0.21226794  0.74046634  0.30502194     0.41100
H1382       H  0.05711046  0.65952763  0.28467882     0.31200
H1383       H  0.00456170  0.69137107  0.28786347     0.38800
H1384       H  0.24912312  0.92856915  0.28577546     0.30700
H1385       H  0.16418409  0.74678092  0.27008354     0.30700
H1386       H  0.12822190  0.85829785  0.26854321     0.31000
Zr1387     Zr  0.14804680  0.86307794  0.37009301     2.17500
O1388       O  0.14871108  0.90839732  0.36198869    -0.51400
O1389       O  0.07618153  0.83842488  0.37153550    -0.74600
O1390       O  0.13497636  0.83504849  0.35930084    -0.81400
O1391       O  0.19498145  0.95217937  0.38157519    -0.83100
O1392       O  0.13962986  0.77873759  0.35941499    -0.78700
O1393       O  0.15873645  0.92900262  0.37253028    -0.90400
O1394       O  0.05545529  0.79789500  0.38012085    -0.76300
O1395       O  0.11663197  0.79451550  0.37299296    -0.85800
O1396       O  0.13985419  0.86053192  0.38129792    -0.85500
O1397       O  0.19544902  0.84333692  0.36688927    -0.72300
O1398       O  0.21428896  0.90242340  0.37458525    -0.84400
Zr1399     Zr  0.21882457  0.80704797  0.38548068     2.26400
Zr1400     Zr  0.16321210  0.77432368  0.36982075     2.06300
Zr1401     Zr  0.20524164  0.89878417  0.38579737     2.10000
Zr1402     Zr  0.11006053  0.79205120  0.38421313     1.78800
O1403       O  0.26102438  0.96518718  0.38805703    -0.93200
O1404       O  0.05746367  0.72354183  0.38215210    -0.41000
O1405       O  0.17468929  0.83008836  0.38895084    -0.77600
O1406       O  0.15340620  0.76822532  0.38100958    -0.96300
O1407       O  0.22835102  0.81107121  0.37437353    -0.89600
O1408       O  0.25017568  0.87614904  0.38272571    -0.92500
C1409       C  0.04938433  0.81579867  0.37555868     1.01300
C1410       C  0.17636907  0.95577356  0.37679046     1.14200
C1411       C  0.13404291  0.80479438  0.35655723     1.05000
O1412       O  0.10032782  0.71160728  0.36875776    -0.94600
O1413       O  0.17723219  0.72384427  0.37348033    -0.90400
O1414       O  0.21060192  0.74155243  0.38284150    -0.83500
C1415       C  0.19354799  0.71713567  0.37822622     1.11600
O1416       O  0.27993029  0.93064299  0.36350448    -0.96600
Zr1417     Zr  0.25990503  0.87978922  0.37169137     1.88900
O1418       O  0.28683602  0.82309981  0.38370597    -0.73200
O1419       O  0.19771292  0.75727172  0.36186680    -0.52500
O1420       O  0.27749975  0.85895088  0.36194188    -0.97200
O1421       O  0.31650181  0.94385561  0.37492164    -0.54400
O1422       O  0.30946500  0.86143881  0.37487534    -0.73800
C1423       C  0.31315148  0.84154676  0.37943970     0.98600
O1424       O  0.20465161  0.76520490  0.39484405    -0.62600
O1425       O  0.16425299  0.90305332  0.39414101    -0.57400
O1426       O  0.25059640  0.84489025  0.39496117    -0.94100
O1427       O  0.24283921  0.89959312  0.39518839    -0.92500
O1428       O  0.08652778  0.81406793  0.39317226    -0.92800
O1429       O  0.09420260  0.74820719  0.39332720    -0.91600
C1430       C  0.25589539  0.87738219  0.39749509     1.17400
H1431       H  0.12321925  0.87144733  0.38254391     0.33400
H1432       H  0.14138958  0.74062682  0.38231171     0.44200
H1433       H  0.27566770  0.89129122  0.38480726     0.37700
H1434       H  0.20071193  0.84684498  0.36242406     0.34200
H1435       H  0.03354878  0.72090359  0.38431515     0.26000
H1436       H  0.17625471  0.73395882  0.35960244     0.32000
H1437       H  0.30704675  0.87205638  0.36201726     0.37900
H1438       H  0.05697884  0.79860951  0.39287149     0.32300
H1439       H  0.17249020  0.89482280  0.39802554     0.31200
H1440       H  0.25155539  0.97518182  0.39157241     0.32900
H1441       H  0.33123765  0.93735603  0.37809354     0.31800
H1442       H  0.11894134  0.74724348  0.39415930     0.35800
H1443       H  0.19354845  0.77611399  0.39796303     0.28600
H1444       H  0.12280444  0.89367538  0.35973905     0.32800
H1445       H  0.30813278  0.93912952  0.36251731     0.35700
H1446       H  0.17465658  0.93205824  0.39469338     0.28300
H1447       H  0.18147357  0.73897881  0.39368813     0.41100
H1448       H  0.08199644  0.71882522  0.36661683     0.31200
H1449       H  0.05131935  0.72305947  0.37760657     0.38800
H1450       H  0.30440729  0.95697628  0.37736243     0.30700
H1451       H  0.20802127  0.77939821  0.35876921     0.30700
H1452       H  0.16917688  0.91142030  0.35888323     0.31000
Zr1453     Zr  0.72069007  0.86558058  0.28182043     2.17500
O1454       O  0.75172664  0.85242737  0.27283363    -0.51400
O1455       O  0.77572404  0.93225475  0.28404499    -0.74600
O1456       O  0.71647476  0.89901370  0.27232305    -0.81400
O1457       O  0.75489476  0.81379546  0.29303343    -0.83100
O1458       O  0.65558489  0.89480549  0.27184034    -0.78700
O1459       O  0.77196970  0.84705219  0.28369482    -0.90400
O1460       O  0.75671178  0.95656873  0.29227731    -0.76300
O1461       O  0.68578883  0.89992175  0.28456033    -0.85800
O1462       O  0.72566789  0.87287568  0.29302253    -0.85500
O1463       O  0.65305020  0.82416377  0.27817038    -0.72300
O1464       O  0.68980502  0.79925014  0.28606274    -0.84400
Zr1465     Zr  0.59278357  0.79924626  0.29677715     2.26400
Zr1466     Zr  0.61789486  0.85823044  0.28123418     2.06300
Zr1467     Zr  0.69384171  0.80671249  0.29724739     2.10000
Zr1468     Zr  0.69053090  0.90694034  0.29569016     1.78800
O1469       O  0.68264161  0.73925319  0.29860319    -0.93200
O1470       O  0.68334166  0.96464257  0.29325836    -0.41000
O1471       O  0.66010748  0.84169475  0.30008065    -0.77600
O1472       O  0.62215417  0.86608409  0.29250884    -0.96300
O1473       O  0.58689226  0.79206280  0.28558278    -0.89600
O1474       O  0.62640063  0.76402817  0.29396426    -0.92500
C1475       C  0.78195283  0.95941372  0.28810289     1.01300
C1476       C  0.77755836  0.82805179  0.28820767     1.14200
C1477       C  0.69075494  0.90610569  0.26964095     1.05000
O1478       O  0.61362715  0.91858539  0.27990431    -0.94600
O1479       O  0.55324662  0.84814080  0.28493735    -0.90400
O1480       O  0.54098919  0.81453921  0.29421295    -0.83500
C1481       C  0.53161660  0.83115824  0.28983516     1.11600
O1482       O  0.65157647  0.74143393  0.27394319    -0.96600
Zr1483     Zr  0.62203140  0.75849994  0.28271596     1.88900
O1484       O  0.54424763  0.72845735  0.29557518    -0.73200
O1485       O  0.57355162  0.82342828  0.27240066    -0.52500
O1486       O  0.57783246  0.74187505  0.27360863    -0.97200
O1487       O  0.63024157  0.70062359  0.28455840    -0.54400
O1488       O  0.55782415  0.70693847  0.28645776    -0.73800
C1489       C  0.53617868  0.70191282  0.29131832     0.98600
O1490       O  0.54668829  0.78645456  0.30550782    -0.62600
O1491       O  0.74436773  0.82942067  0.30554830    -0.57400
O1492       O  0.61254063  0.80022926  0.30780529    -0.94100
O1493       O  0.66932604  0.79642973  0.30798440    -0.92500
O1494       O  0.72972333  0.92454353  0.30538043    -0.92800
O1495       O  0.66151407  0.92533059  0.30434707    -0.91600
C1496       C  0.64068337  0.79815515  0.31073789     1.17400
H1497       H  0.75305805  0.88729559  0.29442649     0.33400
H1498       H  0.60792893  0.87930568  0.29392197     0.44200
H1499       H  0.61513111  0.73843496  0.29605466     0.37700
H1500       H  0.65287891  0.82175220  0.27363294     0.34200
H1501       H  0.70630477  0.98734155  0.29538868     0.26000
H1502       H  0.56930809  0.84398681  0.27032355     0.32000
H1503       H  0.56097127  0.71238167  0.27368579     0.37900
H1504       H  0.74571797  0.95411021  0.30533399     0.32300
H1505       H  0.75349333  0.80959103  0.30562766     0.31200
H1506       H  0.69620067  0.73517467  0.29495759     0.32900
H1507       H  0.60747224  0.67824820  0.28233764     0.31800
H1508       H  0.63894471  0.89961960  0.30583790     0.35800
H1509       H  0.54745963  0.81209441  0.30630936     0.28600
H1510       H  0.77043365  0.87891343  0.27100343     0.32800
H1511       H  0.62956949  0.71674847  0.27205561     0.35700
H1512       H  0.76746959  0.85421356  0.30391001     0.28300
H1513       H  0.51952254  0.76831209  0.30383431     0.41100
H1514       H  0.61912967  0.93085428  0.28415117     0.31200
H1515       H  0.68954411  0.96959394  0.28870695     0.38800
H1516       H  0.62426957  0.69414861  0.28908337     0.30700
H1517       H  0.59015582  0.81850137  0.26938346     0.30700
H1518       H  0.73009768  0.83913276  0.26966897     0.31000
Zr1519     Zr  0.73544465  0.84728181  0.36939409     2.17500
O1520       O  0.78451594  0.85083744  0.36178382    -0.51400
O1521       O  0.78298668  0.91905711  0.37036673    -0.74600
O1522       O  0.71975247  0.85556376  0.35844564    -0.81400
O1523       O  0.77675830  0.80242633  0.38144035    -0.83100
O1524       O  0.65891520  0.85120231  0.35819113    -0.78700
O1525       O  0.78835073  0.83364155  0.37194072    -0.90400
O1526       O  0.76426184  0.94307677  0.37864131    -0.76300
O1527       O  0.69788881  0.87917385  0.37166358    -0.85800
O1528       O  0.74120290  0.85853925  0.38051823    -0.85500
O1529       O  0.66867764  0.79852498  0.36621594    -0.72300
O1530       O  0.70985340  0.78275724  0.37439265    -0.84400
Zr1531     Zr  0.60819737  0.78002600  0.38461275     2.26400
Zr1532     Zr  0.63112753  0.83088691  0.36860397     2.06300
Zr1533     Zr  0.71394889  0.79452698  0.38551982     2.10000
Zr1534     Zr  0.70265600  0.88929986  0.38280123     1.78800
O1535       O  0.72357330  0.73868652  0.38833262    -0.93200
O1536       O  0.68750647  0.94180839  0.38026280    -0.41000
O1537       O  0.67548907  0.82587443  0.38798439    -0.77600
O1538       O  0.63520666  0.84448677  0.37969275    -0.96300
O1539       O  0.60402335  0.76737185  0.37359403    -0.89600
O1540       O  0.64658601  0.74823276  0.38250834    -0.92500
C1541       C  0.78813071  0.94724624  0.37414623     1.01300
C1542       C  0.79777194  0.81774687  0.37643409     1.14200
C1543       C  0.69050790  0.85550968  0.35551096     1.05000
O1544       O  0.62787939  0.89060131  0.36595346    -0.94600
O1545       O  0.56662187  0.81880256  0.37195618    -0.90400
O1546       O  0.55204296  0.78932264  0.38162389    -0.83500
C1547       C  0.54398946  0.80417823  0.37677867     1.11600
O1548       O  0.67785039  0.71661076  0.36409707    -0.96600
Zr1549     Zr  0.64229459  0.73594267  0.37152186     1.88900
O1550       O  0.55461715  0.71224191  0.38250347    -0.73200
O1551       O  0.58045843  0.78909518  0.36089352    -0.52500
O1552       O  0.60586398  0.71129973  0.36162708    -0.97200
O1553       O  0.64765470  0.67989220  0.37571428    -0.54400
O1554       O  0.57404265  0.68800800  0.37430517    -0.73800
C1555       C  0.54846097  0.68523495  0.37841034     0.98600
O1556       O  0.57950616  0.79471343  0.39381394    -0.62600
O1557       O  0.76022153  0.83631009  0.39370522    -0.57400
O1558       O  0.61376037  0.75131968  0.39451866    -0.94100
O1559       O  0.67735870  0.76223060  0.39517753    -0.92500
O1560       O  0.74890659  0.91509894  0.39166451    -0.92800
O1561       O  0.67427483  0.90666930  0.39166014    -0.91600
C1562       C  0.64191245  0.74907376  0.39739559     1.17400
H1563       H  0.76880567  0.87550291  0.38174719     0.33400
H1564       H  0.61964922  0.85688141  0.38077594     0.44200
H1565       H  0.63622116  0.72345407  0.38480146     0.37700
H1566       H  0.66681260  0.79150478  0.36181951     0.34200
H1567       H  0.71088178  0.96674157  0.38181636     0.26000
H1568       H  0.57606745  0.80796256  0.35831684     0.32000
H1569       H  0.59128625  0.68181212  0.36203641     0.37900
H1570       H  0.75850082  0.94414703  0.39171608     0.32300
H1571       H  0.74388600  0.84287565  0.39652104     0.31200
H1572       H  0.74580975  0.74980130  0.39142485     0.32900
H1573       H  0.62386337  0.66470960  0.37842233     0.31800
H1574       H  0.64871067  0.88194151  0.39254953     0.35800
H1575       H  0.60171288  0.80791519  0.39688850     0.28600
H1576       H  0.79413533  0.87637034  0.35949102     0.32800
H1577       H  0.66004519  0.68767821  0.36331901     0.35700
H1578       H  0.76555298  0.81783062  0.39621243     0.28300
H1579       H  0.57452917  0.81643267  0.39249103     0.41100
H1580       H  0.65557015  0.91082280  0.36478316     0.31200
H1581       H  0.68950781  0.94412825  0.37561117     0.38800
H1582       H  0.67047206  0.69208625  0.37869202     0.30700
H1583       H  0.59397364  0.77941479  0.35801813     0.30700
H1584       H  0.76927291  0.82964275  0.35863045     0.31000
Zr1585     Zr  0.87366451  0.71185025  0.21843829     2.17500
O1586       O  0.85177474  0.73141320  0.22788944    -0.51400
O1587       O  0.93813482  0.77097783  0.21693520    -0.74600
O1588       O  0.90998835  0.70928039  0.22759263    -0.81400
O1589       O  0.81876965  0.74582748  0.20771990    -0.83100
O1590       O  0.91225798  0.65154347  0.22736076    -0.78700
O1591       O  0.85514786  0.76256643  0.21680308    -0.90400
O1592       O  0.96662676  0.75960035  0.20839935    -0.76300
O1593       O  0.91318519  0.68325141  0.21535716    -0.85800
O1594       O  0.88262624  0.72178665  0.20733550    -0.85500
O1595       O  0.83641965  0.64305891  0.22152956    -0.72300
O1596       O  0.80803026  0.67965803  0.21390921    -0.84400
Zr1597     Zr  0.81761120  0.58907319  0.20247638     2.26400
Zr1598     Zr  0.87540702  0.61410753  0.21804893     2.06300
Zr1599     Zr  0.81739414  0.68798111  0.20278884     2.10000
Zr1600     Zr  0.92170593  0.69264234  0.20432054     1.78800
O1601       O  0.74880493  0.67121655  0.20059872    -0.93200
O1602       O  0.98277564  0.69133052  0.20668615    -0.41000
O1603       O  0.85646556  0.65856863  0.19979316    -0.77600
O1604       O  0.88446638  0.62242368  0.20684328    -0.96300
O1605       O  0.80948746  0.58042110  0.21360679    -0.89600
O1606       O  0.77850564  0.61865032  0.20551635    -0.92500
C1607       C  0.96641205  0.78173411  0.21291590     1.01300
C1608       C  0.83438377  0.76808245  0.21260645     1.14200
C1609       C  0.92066665  0.68520116  0.22985541     1.05000
O1610       O  0.93875458  0.61468858  0.21846038    -0.94600
O1611       O  0.86605525  0.55034200  0.21442246    -0.90400
O1612       O  0.83486997  0.53750558  0.20490616    -0.83500
C1613       C  0.85100769  0.52869796  0.20947799     1.11600
O1614       O  0.75108919  0.63922533  0.22519656    -0.96600
Zr1615     Zr  0.77168092  0.61076081  0.21671717     1.88900
O1616       O  0.74816106  0.53438709  0.20350912    -0.73200
O1617       O  0.84603486  0.56856636  0.22693407    -0.52500
O1618       O  0.75860871  0.56823649  0.22592367    -0.97200
O1619       O  0.70750613  0.60760542  0.21517239    -0.54400
O1620       O  0.72548993  0.54585030  0.21267969    -0.73800
C1621       C  0.72154884  0.52451295  0.20783689     0.98600
O1622       O  0.81911888  0.55259979  0.19318209    -0.62600
O1623       O  0.84071125  0.74252736  0.19517930    -0.57400
O1624       O  0.81222302  0.60830698  0.19164326    -0.94100
O1625       O  0.81258455  0.66734971  0.19186310    -0.92500
O1626       O  0.93832679  0.73555326  0.19508424    -0.92800
O1627       O  0.94435343  0.66935242  0.19542112    -0.91600
C1628       C  0.81204872  0.63804742  0.18892040     1.17400
H1629       H  0.89556999  0.74974554  0.20624122     0.33400
H1630       H  0.89915005  0.60997759  0.20532286     0.44200
H1631       H  0.75293597  0.60612324  0.20337720     0.37700
H1632       H  0.83355222  0.64114584  0.22606120     0.34200
H1633       H  0.00412777  0.71498517  0.20448221     0.26000
H1634       H  0.86854740  0.56661426  0.22879503     0.32000
H1635       H  0.72942465  0.54933803  0.22581120     0.37900
H1636       H  0.91217103  0.73009556  0.19337955     0.32300
H1637       H  0.82032940  0.75094053  0.19522742     0.31200
H1638       H  0.74169603  0.68327013  0.20412472     0.32900
H1639       H  0.68803618  0.58382843  0.21758575     0.31800
H1640       H  0.91963893  0.65166160  0.19302960     0.35800
H1641       H  0.84613684  0.55556593  0.19312591     0.28600
H1642       H  0.87646195  0.75321301  0.22981491     0.32800
H1643       H  0.73061142  0.61628128  0.22764380     0.35700
H1644       H  0.86478858  0.76511300  0.19710555     0.28300
H1645       H  0.80059449  0.52397955  0.19408786     0.41100
H1646       H  0.94833189  0.61904262  0.21404647     0.31200
H1647       H  0.98784047  0.69819570  0.21121988     0.38800
H1648       H  0.70036864  0.59996116  0.21070019     0.30700
H1649       H  0.83994195  0.58360727  0.23009544     0.30700
H1650       H  0.84280040  0.70859966  0.23083246     0.31000
Zr1651     Zr  0.84175927  0.70338902  0.13038984     2.17500
O1652       O  0.83237831  0.73912717  0.13911773    -0.51400
O1653       O  0.91355596  0.75216380  0.12950069    -0.74600
O1654       O  0.85641604  0.68617983  0.14082284    -0.81400
O1655       O  0.79780788  0.74993843  0.11936753    -0.83100
O1656       O  0.84799293  0.62364665  0.14034819    -0.78700
O1657       O  0.83385449  0.76070442  0.12840516    -0.90400
O1658       O  0.93477926  0.73955241  0.12026313    -0.76300
O1659       O  0.87531940  0.66929820  0.12694478    -0.85800
O1660       O  0.84977656  0.71376377  0.11926399    -0.85500
O1661       O  0.79603680  0.63472293  0.13300666    -0.72300
O1662       O  0.77573836  0.67702053  0.12586521    -0.84400
Zr1663     Zr  0.77368703  0.58206689  0.11389589     2.26400
Zr1664     Zr  0.83019326  0.60073380  0.12949761     2.06300
Zr1665     Zr  0.78453308  0.68635256  0.11468666     2.10000
Zr1666     Zr  0.88187389  0.67866360  0.11578197     1.78800
O1667       O  0.72686229  0.69559468  0.11353321    -0.93200
O1668       O  0.93537000  0.66341246  0.11730278    -0.41000
O1669       O  0.81695824  0.65096124  0.11103539    -0.77600
O1670       O  0.83962297  0.60991169  0.11831519    -0.96300
O1671       O  0.76483416  0.57283233  0.12499923    -0.89600
O1672       O  0.74094820  0.61749800  0.11723593    -0.92500
C1673       C  0.94042504  0.76026382  0.12526569     1.01300
C1674       C  0.81680844  0.77111272  0.12421975     1.14200
C1675       C  0.85481465  0.65519271  0.14338690     1.05000
O1676       O  0.89530408  0.60577873  0.13069363    -0.94600
O1677       O  0.82127722  0.53985527  0.12477052    -0.90400
O1678       O  0.78638353  0.52640729  0.11557181    -0.83500
C1679       C  0.80519328  0.51844854  0.11983962     1.11600
O1680       O  0.70995285  0.63563587  0.13662359    -0.96600
Zr1681     Zr  0.73188133  0.60779747  0.12824711     1.88900
O1682       O  0.70763015  0.52557005  0.11601084    -0.73200
O1683       O  0.79897655  0.54339108  0.13657800    -0.52500
O1684       O  0.71532651  0.56693156  0.13774195    -0.97200
O1685       O  0.67277471  0.61188791  0.12539046    -0.54400
O1686       O  0.68440847  0.54084139  0.12480080    -0.73800
C1687       C  0.68145821  0.51706795  0.12035257     0.98600
O1688       O  0.78908689  0.55797163  0.10425008    -0.62600
O1689       O  0.82161196  0.73179300  0.10609975    -0.57400
O1690       O  0.73950945  0.59037129  0.10476470    -0.94100
O1691       O  0.74723212  0.65283355  0.10508969    -0.92500
O1692       O  0.90184835  0.72773249  0.10733274    -0.92800
O1693       O  0.90236853  0.65775205  0.10635080    -0.91600
C1694       C  0.73402427  0.61827073  0.10250801     1.17400
H1695       H  0.86588042  0.74185213  0.11828803     0.33400
H1696       H  0.85272530  0.59604132  0.11669663     0.44200
H1697       H  0.71523558  0.60722936  0.11520348     0.37700
H1698       H  0.79013775  0.63126950  0.13745442     0.34200
H1699       H  0.95991436  0.68772420  0.11589088     0.26000
H1700       H  0.82151772  0.54349063  0.13883374     0.32000
H1701       H  0.68602106  0.54876899  0.13753357     0.37900
H1702       H  0.93110932  0.73910223  0.10692840     0.32300
H1703       H  0.80267933  0.73919071  0.10423093     0.31200
H1704       H  0.73437138  0.71570529  0.11013723     0.32900
H1705       H  0.65953882  0.59225393  0.12195095     0.31800
H1706       H  0.87710435  0.64060493  0.10405210     0.35800
H1707       H  0.79473988  0.57866807  0.10102366     0.28600
H1708       H  0.85841772  0.75332203  0.14134306     0.32800
H1709       H  0.68318737  0.61386103  0.13790388     0.35700
H1710       H  0.84214617  0.75653474  0.10818890     0.28300
H1711       H  0.81553258  0.56045152  0.10503655     0.41100
H1712       H  0.91018204  0.62821211  0.13366788     0.31200
H1713       H  0.93847382  0.66311094  0.12193339     0.38800
H1714       H  0.68346892  0.63827072  0.12332393     0.30700
H1715       H  0.78525602  0.55058623  0.13982381     0.30700
H1716       H  0.81390123  0.71839700  0.14210542     0.31000
Zr1717     Zr  0.26003801  0.14343365  0.21815631     2.17500
O1718       O  0.22820202  0.10024062  0.22722778    -0.51400
O1719       O  0.20786970  0.15913734  0.21603327    -0.74600
O1720       O  0.26712157  0.18284835  0.22761664    -0.81400
O1721       O  0.22390501  0.05696119  0.20689842    -0.83100
O1722       O  0.33027872  0.23634750  0.22796920    -0.78700
O1723       O  0.20578701  0.07522265  0.21594539    -0.90400
O1724       O  0.22696854  0.20070688  0.20755918    -0.76300
O1725       O  0.29797057  0.21237732  0.21533013    -0.85800
O1726       O  0.25573956  0.14619444  0.20694554    -0.85500
O1727       O  0.32699865  0.16657055  0.22184805    -0.72300
O1728       O  0.28756062  0.10495435  0.21389748    -0.84400
Zr1729     Zr  0.38951326  0.19946074  0.20330915     2.26400
Zr1730     Zr  0.36535847  0.23505654  0.21857222     2.06300
Zr1731     Zr  0.28537243  0.10991615  0.20269077     2.10000
Zr1732     Zr  0.29332819  0.21498015  0.20421883     1.78800
O1733       O  0.29417205  0.05275003  0.20065986    -0.93200
O1734       O  0.30229687  0.28023385  0.20692297    -0.41000
O1735       O  0.32273268  0.17863326  0.19987092    -0.77600
O1736       O  0.36184767  0.23928084  0.20731911    -0.96300
O1737       O  0.39336093  0.19678014  0.21450453    -0.89600
O1738       O  0.35184435  0.13066929  0.20615588    -0.92500
C1739       C  0.20199424  0.17997568  0.21191193     1.01300
C1740       C  0.20021562  0.04996682  0.21154213     1.14200
C1741       C  0.29494875  0.21487009  0.23022359     1.05000
O1742       O  0.37231622  0.30110727  0.21942838    -0.94600
O1743       O  0.43251909  0.28456711  0.21535225    -0.90400
O1744       O  0.44421561  0.26592092  0.20580362    -0.83500
C1745       C  0.45442036  0.29000869  0.21049010     1.11600
O1746       O  0.32420386  0.08712508  0.22676305    -0.96600
Zr1747     Zr  0.35421348  0.12842459  0.21743438     1.88900
O1748       O  0.43688061  0.17560532  0.20529260    -0.73200
O1749       O  0.41068809  0.24687946  0.22736206    -0.52500
O1750       O  0.40058705  0.15334004  0.22632971    -0.97200
O1751       O  0.33740527  0.05923527  0.21588190    -0.54400
O1752       O  0.41556657  0.13452504  0.21380772    -0.73800
C1753       C  0.44062417  0.15320677  0.20941791     0.98600
O1754       O  0.43565941  0.23146380  0.19453183    -0.62600
O1755       O  0.23286216  0.08459895  0.19468582    -0.57400
O1756       O  0.37212313  0.17758947  0.19231214    -0.94100
O1757       O  0.30948671  0.12370042  0.19196132    -0.78100
O1758       O  0.25373559  0.19377558  0.19456385    -0.92800
O1759       O  0.32243432  0.26327011  0.19567398    -0.91600
C1760       C  0.34178619  0.15013005  0.18930998     1.17400
H1761       H  0.22841282  0.13428518  0.20553691     0.33400
H1762       H  0.37754745  0.26667635  0.20593655     0.44200
H1763       H  0.36206400  0.11522093  0.20414151     0.37700
H1764       H  0.32722939  0.16470657  0.22639262     0.34200
H1765       H  0.28232995  0.28272729  0.20431817     0.26000
H1766       H  0.41475988  0.27190920  0.22932302     0.32000
H1767       H  0.41431221  0.13747728  0.22630388     0.37900
H1768       H  0.26183603  0.17615649  0.19242382     0.32300
H1769       H  0.22336749  0.05562595  0.19437785     0.31200
H1770       H  0.27743178  0.03270451  0.20386681     0.32900
H1771       H  0.35974455  0.05743911  0.21784697     0.31800
H1772       H  0.34063657  0.25604010  0.19350683     0.35800
H1773       H  0.43744790  0.25772663  0.19390547     0.28600
H1774       H  0.21022500  0.10907182  0.22902220     0.32800
H1775       H  0.34387469  0.07984798  0.22834500     0.35700
H1776       H  0.21028331  0.08617538  0.19658479     0.28300
H1777       H  0.46236313  0.23775074  0.19610266     0.41100
H1778       H  0.37121878  0.30908540  0.21502767     0.31200
H1779       H  0.29210408  0.27722715  0.21128782     0.38800
H1780       H  0.34066073  0.05682062  0.21130381     0.30700
H1781       H  0.39466208  0.22575495  0.23047407     0.30700
H1782       H  0.24980592  0.10819730  0.23038786     0.31000
Zr1783     Zr  0.27197467  0.08947058  0.13004805     2.17500
O1784       O  0.23502167  0.04121403  0.13835344    -0.51400
O1785       O  0.22097898  0.10959635  0.12925236    -0.74600
O1786       O  0.28717610  0.11833229  0.14065725    -0.81400
O1787       O  0.22685747  0.00650771  0.11792319    -0.83100
O1788       O  0.34986666  0.17236684  0.14077204    -0.78700
O1789       O  0.21591760  0.02350233  0.12768194    -0.90400
O1790       O  0.23852238  0.15323978  0.12109014    -0.76300
O1791       O  0.30712399  0.15896756  0.12757200    -0.85800
O1792       O  0.26352810  0.09404308  0.11899707    -0.85500
O1793       O  0.34058059  0.11143386  0.13277206    -0.72300
O1794       O  0.29947000  0.05252299  0.12500512    -0.84400
Zr1795     Zr  0.39579361  0.15129896  0.11407220     2.26400
Zr1796     Zr  0.37552357  0.18131428  0.13014117     2.06300
Zr1797     Zr  0.29147275  0.05828991  0.11395169     2.10000
Zr1798     Zr  0.29970059  0.16309405  0.11647396     1.78800
O1799       O  0.28566803  0.99317435  0.11238764    -0.93200
O1800       O  0.31273165  0.23021748  0.11897267    -0.41000
O1801       O  0.32733345  0.12767092  0.11120783    -0.77600
O1802       O  0.36826921  0.18803652  0.11906806    -0.96300
O1803       O  0.40396404  0.14615615  0.12507677    -0.89600
O1804       O  0.36009655  0.08165441  0.11650068    -0.92500
C1805       C  0.21512540  0.13277440  0.12558571     1.01300
C1806       C  0.20571624  0.99971701  0.12293857     1.14200
C1807       C  0.31741690  0.14688286  0.14349928     1.05000
O1808       O  0.37009186  0.24071272  0.13191625    -0.94600
O1809       O  0.43847039  0.23521132  0.12621364    -0.90400
O1810       O  0.45126584  0.21750033  0.11663280    -0.83500
C1811       C  0.45986360  0.24211863  0.12123636     1.11600
O1812       O  0.34081961  0.02399628  0.13532630    -0.96600
Zr1813     Zr  0.36871221  0.07688257  0.12743121     1.88900
O1814       O  0.45317028  0.14223598  0.11572259    -0.73200
O1815       O  0.42947244  0.20139220  0.13778484    -0.52500
O1816       O  0.41041543  0.09636851  0.13686916    -0.97200
O1817       O  0.36333126  0.01419798  0.12393604    -0.54400
O1818       O  0.43592721  0.09764016  0.12374719    -0.73800
C1819       C  0.46084888  0.12167199  0.11965827     0.98600
O1820       O  0.41883075  0.19277115  0.10461360    -0.62600
O1821       O  0.24552657  0.04848910  0.10534126    -0.57400
O1822       O  0.38803720  0.11394597  0.10442068    -0.94100
O1823       O  0.32497883  0.06010253  0.10416600    -0.92500
O1824       O  0.25279091  0.13938534  0.10768049    -0.92800
O1825       O  0.32357633  0.20768570  0.10740874    -0.91600
C1826       C  0.35986531  0.08233841  0.10179211     1.17400
H1827       H  0.23565381  0.08264136  0.11791540     0.33400
H1828       H  0.38273245  0.21578634  0.11782007     0.44200
H1829       H  0.37045393  0.06721150  0.11420791     0.37700
H1830       H  0.34316532  0.10717131  0.13719023     0.34200
H1831       H  0.28993227  0.23167090  0.11711490     0.26000
H1832       H  0.42851621  0.22203889  0.14042467     0.32000
H1833       H  0.43566111  0.12052511  0.13563496     0.37900
H1834       H  0.23824273  0.15436403  0.10801738     0.32300
H1835       H  0.23383848  0.01999591  0.10416786     0.31200
H1836       H  0.26825236  0.98191397  0.10863448     0.32900
H1837       H  0.38454479  0.02173103  0.12073472     0.31800
H1838       H  0.34552015  0.20437357  0.10566894     0.35800
H1839       H  0.39501437  0.18223702  0.10184058     0.28600
H1840       H  0.22193052  0.05295728  0.14088921     0.32800
H1841       H  0.36263277  0.01859704  0.13641965     0.35700
H1842       H  0.22317480  0.05008224  0.10732613     0.28300
H1843       H  0.42335782  0.21932284  0.10591958     0.41100
H1844       H  0.39753633  0.26200784  0.13300341     0.31200
H1845       H  0.30859049  0.22993784  0.12358339     0.38800
H1846       H  0.33801781  0.00059056  0.12151676     0.30700
H1847       H  0.42072390  0.17807599  0.14061342     0.30700
H1848       H  0.25558708  0.04128101  0.14116271     0.31000
Zr1849     Zr  0.83235446  0.09404378  0.21804075     2.17500
O1850       O  0.87484928  0.10422419  0.22718520    -0.51400
O1851       O  0.81675198  0.02568745  0.21627535    -0.74600
O1852       O  0.79328065  0.06384861  0.22757054    -0.81400
O1853       O  0.92268190  0.14693874  0.20731022    -0.83100
O1854       O  0.73655835  0.06792036  0.22711196    -0.78700
O1855       O  0.90145113  0.10995964  0.21629513    -0.90400
O1856       O  0.77218826  0.00097376  0.20818310    -0.76300
O1857       O  0.76348013  0.06248331  0.21511998    -0.85800
O1858       O  0.82992781  0.08377204  0.20692596    -0.85500
O1859       O  0.81000063  0.13951432  0.22116163    -0.72300
O1860       O  0.87092982  0.15896857  0.21342213    -0.84400
Zr1861     Zr  0.77766188  0.16395755  0.20217575     2.26400
Zr1862     Zr  0.74133760  0.10815011  0.21791466     2.06300
Zr1863     Zr  0.86740563  0.14856431  0.20228579     2.10000
Zr1864     Zr  0.76115488  0.05304219  0.20405851     1.78800
O1865       O  0.92395964  0.21376596  0.19962855    -0.93200
O1866       O  0.69451928  0.99822346  0.20648468    -0.41000
O1867       O  0.79866414  0.11734422  0.19940321    -0.77600
O1868       O  0.73757628  0.09809302  0.20671953    -0.96300
O1869       O  0.77942414  0.17310254  0.21329808    -0.89600
O1870       O  0.84652226  0.19544178  0.20503142    -0.92500
C1871       C  0.79404729  0.99777917  0.21243692     1.01300
C1872       C  0.92841427  0.13074028  0.21217762     1.14200
C1873       C  0.75928821  0.05667496  0.22976632     1.05000
O1874       O  0.67282159  0.05374967  0.21919774    -0.94600
O1875       O  0.69124871  0.12378350  0.21413396    -0.90400
O1876       O  0.71236459  0.15503355  0.20466854    -0.83500
C1877       C  0.68708405  0.14067259  0.20919753     1.11600
O1878       O  0.88865091  0.21894417  0.22571832    -0.96600
Zr1879     Zr  0.84784003  0.20380524  0.21622307     1.88900
O1880       O  0.80551390  0.23677846  0.20285533    -0.73200
O1881       O  0.73667877  0.14653757  0.22664439    -0.52500
O1882       O  0.82159448  0.22796870  0.22450398    -0.97200
O1883       O  0.91645254  0.25662026  0.21429339    -0.54400
O1884       O  0.84227902  0.25839315  0.21184145    -0.73800
C1885       C  0.82632449  0.26406700  0.20694262     0.98600
O1886       O  0.73501938  0.17008547  0.19426557    -0.62600
O1887       O  0.89241089  0.11506344  0.19544778    -0.57400
O1888       O  0.79767970  0.16119086  0.19125411    -0.94100
O1889       O  0.85161784  0.15237865  0.19131189    -0.92500
O1890       O  0.78305087  0.03169831  0.19482466    -0.92800
O1891       O  0.71566029  0.03401762  0.19509770    -0.91600
C1892       C  0.82439831  0.15618882  0.18843831     1.17400
H1893       H  0.84138971  0.06748769  0.20576868     0.33400
H1894       H  0.71017455  0.08621968  0.20529525     0.44200
H1895       H  0.86232273  0.22036786  0.20281566     0.37700
H1896       H  0.81199053  0.14280979  0.22569025     0.34200
H1897       H  0.69279938  0.97481144  0.20428157     0.26000
H1898       H  0.70877595  0.13033515  0.22814510     0.32000
H1899       H  0.83863077  0.25744508  0.22441003     0.37900
H1900       H  0.80498503  0.05671124  0.19301501     0.32300
H1901       H  0.92101438  0.13487152  0.19477870     0.31200
H1902       H  0.92534460  0.21393267  0.19496633     0.32900
H1903       H  0.91667246  0.26526457  0.20989051     0.31800
H1904       H  0.71526901  0.05870960  0.19397411     0.35800
H1905       H  0.75312504  0.19226623  0.19145256     0.28600
H1906       H  0.86674070  0.07707846  0.22876265     0.32800
H1907       H  0.90008192  0.24796423  0.22644676     0.35700
H1908       H  0.89263640  0.09386896  0.19804505     0.28300
H1909       H  0.72433224  0.14563032  0.19164587     0.41100
H1910       H  0.66620125  0.03908484  0.21514339     0.31200
H1911       H  0.69561885  0.99261837  0.21101608     0.38800
H1912       H  0.93212061  0.24270653  0.21415760     0.30700
H1913       H  0.75306300  0.14446793  0.23006176     0.30700
H1914       H  0.86596618  0.11630728  0.23046547     0.31000
Zr1915     Zr  0.88534543  0.13333811  0.12978189     2.17500
O1916       O  0.93206056  0.13986217  0.13811795    -0.51400
O1917       O  0.86159665  0.06137358  0.12836888    -0.74600
O1918       O  0.85536585  0.11686867  0.14032915    -0.81400
O1919       O  0.97412547  0.18127479  0.11859202    -0.83100
O1920       O  0.80001109  0.12338291  0.14031685    -0.78700
O1921       O  0.95105586  0.14262411  0.12739251    -0.90400
O1922       O  0.81949303  0.04049948  0.11996055    -0.76300
O1923       O  0.81674941  0.10155414  0.12680530    -0.85800
O1924       O  0.88388571  0.12608040  0.11859448    -0.85500
O1925       O  0.86363558  0.17955250  0.13294133    -0.72300
O1926       O  0.92376206  0.20018061  0.12550995    -0.84400
Zr1927     Zr  0.82896883  0.20364867  0.11435116     2.26400
Zr1928     Zr  0.79449862  0.14682130  0.12991864     2.06300
Zr1929     Zr  0.92150712  0.19189408  0.11430066     2.10000
Zr1930     Zr  0.81549469  0.09546465  0.11560149     1.78800
O1931       O  0.98743501  0.25002489  0.11266932    -0.93200
O1932       O  0.74567299  0.04561013  0.11743185    -0.41000
O1933       O  0.85316244  0.16035340  0.11097732    -0.77600
O1934       O  0.79056106  0.13793610  0.11870930    -0.96300
O1935       O  0.83100411  0.21229562  0.12548533    -0.89600
O1936       O  0.89778112  0.23602534  0.11729852    -0.92500
C1937       C  0.83785340  0.03433093  0.12444435     1.01300
C1938       C  0.97800125  0.16189112  0.12321491     1.14200
C1939       C  0.82552503  0.11646043  0.14309383     1.05000
O1940       O  0.73306212  0.08332309  0.13136973    -0.94600
O1941       O  0.74160814  0.15712809  0.12572731    -0.90400
O1942       O  0.76257358  0.19327360  0.11663473    -0.83500
C1943       C  0.73632107  0.17444316  0.12093309     1.11600
O1944       O  0.94533750  0.26383589  0.13728772    -0.96600
Zr1945     Zr  0.89956098  0.24475048  0.12833836     1.88900
O1946       O  0.84114146  0.27051035  0.11621648    -0.73200
O1947       O  0.77818339  0.18166841  0.13792080    -0.52500
O1948       O  0.87639010  0.26491624  0.13756626    -0.97200
O1949       O  0.96562420  0.29981299  0.12558242    -0.54400
O1950       O  0.88362222  0.29528598  0.12457484    -0.73800
C1951       C  0.86158082  0.29797674  0.12025168     0.98600
O1952       O  0.78813582  0.18747254  0.10482113    -0.62600
O1953       O  0.92933247  0.15409457  0.10578450    -0.57400
O1954       O  0.86831235  0.23682872  0.10504302    -0.94100
O1955       O  0.92218755  0.22767804  0.10477581    -0.92500
O1956       O  0.83858493  0.06859469  0.10726416    -0.92800
O1957       O  0.77616950  0.08049958  0.10595268    -0.91600
C1958       C  0.90054965  0.24140444  0.10249827     1.17400
H1959       H  0.89523850  0.10984046  0.11733947     0.33400
H1960       H  0.76314153  0.12546203  0.11727049     0.44200
H1961       H  0.91291553  0.26167007  0.11526877     0.37700
H1962       H  0.86675203  0.18433865  0.13742833     0.34200
H1963       H  0.74213170  0.02102910  0.11537807     0.26000
H1964       H  0.75571346  0.16027518  0.14032908     0.32000
H1965       H  0.85068258  0.26257545  0.13624922     0.37900
H1966       H  0.81744044  0.04019940  0.10687141     0.32300
H1967       H  0.90611690  0.14667933  0.10297880     0.31200
H1968       H  0.00030719  0.24135473  0.10949340     0.32900
H1969       H  0.96086503  0.31527554  0.12231099     0.31800
H1970       H  0.76103437  0.09481989  0.10640617     0.35800
H1971       H  0.79957928  0.17583214  0.10190116     0.28600
H1972       H  0.91967361  0.11376687  0.14031993     0.32800
H1973       H  0.95442389  0.29238061  0.13808901     0.35700
H1974       H  0.95262497  0.17419197  0.10335283     0.28300
H1975       H  0.76177865  0.16445466  0.10595991     0.41100
H1976       H  0.71865628  0.08848690  0.13476549     0.31200
H1977       H  0.74411902  0.03976897  0.12200211     0.38800
H1978       H  0.97864672  0.28702514  0.12330334     0.30700
H1979       H  0.80105917  0.19274738  0.14089343     0.30700
H1980       H  0.93178276  0.15891002  0.14121523     0.31000
Zr1981     Zr  0.47544790  0.52602961  0.03511471     2.17500
O1982       O  0.47844990  0.57310977  0.02713884    -0.51400
O1983       O  0.40349273  0.50207076  0.03579316    -0.74600
O1984       O  0.46638603  0.50089560  0.02423635    -0.81400
O1985       O  0.51580397  0.61073717  0.04740751    -0.83100
O1986       O  0.46940991  0.44367496  0.02432310    -0.78700
O1987       O  0.48588677  0.59125834  0.03778760    -0.90400
O1988       O  0.37948474  0.46062463  0.04423051    -0.76300
O1989       O  0.44399551  0.45658789  0.03746385    -0.85800
O1990       O  0.46366967  0.52113900  0.04623196    -0.85500
O1991       O  0.52460011  0.50821795  0.03213408    -0.72300
O1992       O  0.53936497  0.56528348  0.04029316    -0.84400
Zr1993     Zr  0.54264582  0.46852460  0.05075336     2.26400
Zr1994     Zr  0.49311630  0.43850715  0.03467152     2.06300
Zr1995     Zr  0.52731701  0.55836951  0.05144330     2.10000
Zr1996     Zr  0.43266910  0.45195980  0.04857491     1.78800
O1997       O  0.58400168  0.62479262  0.05346793    -0.93200
O1998       O  0.37950083  0.38455264  0.04601687    -0.41000
O1999       O  0.49569479  0.48868552  0.05395719    -0.77600
O2000       O  0.47851692  0.42995983  0.04573231    -0.96300
O2001       O  0.55641553  0.47590393  0.03975500    -0.89600
O2002       O  0.57418219  0.53821361  0.04850344    -0.92500
C2003       C  0.37527795  0.47969256  0.03962265     1.01300
C2004       C  0.50032095  0.61600859  0.04238216     1.14200
C2005       C  0.46535380  0.47071810  0.02147743     1.05000
O2006       O  0.43669436  0.37317138  0.03205353    -0.94600
O2007       O  0.50709013  0.38738528  0.03836615    -0.90400
O2008       O  0.53680463  0.40474036  0.04801413    -0.83500
C2009       C  0.52252746  0.38096104  0.04328306     1.11600
O2010       O  0.60752223  0.59861247  0.02974869    -0.96600
Zr2011     Zr  0.58692774  0.54534957  0.03752938     1.88900
O2012       O  0.61142791  0.48428279  0.04918451    -0.73200
O2013       O  0.53600198  0.43173842  0.02694285    -0.52500
O2014       O  0.61069239  0.53055361  0.02780809    -0.97200
O2015       O  0.64165914  0.60940999  0.04119285    -0.54400
O2016       O  0.63674598  0.52931570  0.04117894    -0.73800
C2017       C  0.63941465  0.50661090  0.04532847     0.98600
O2018       O  0.52598393  0.42532897  0.06000547    -0.62600
O2019       O  0.48586423  0.56289678  0.05967364    -0.57400
O2020       O  0.57108955  0.50372253  0.06055655    -0.94100
O2021       O  0.56256804  0.55785231  0.06113543    -0.92500
O2022       O  0.40735943  0.47258678  0.05746309    -0.92800
O2023       O  0.41221663  0.40556684  0.05741314    -0.91600
C2024       C  0.57529745  0.53507519  0.06335292     1.17400
H2025       H  0.44646181  0.53161669  0.04736779     0.33400
H2026       H  0.46656530  0.40211962  0.04687858     0.44200
H2027       H  0.59897922  0.55304799  0.05078399     0.37700
H2028       H  0.53124912  0.51285034  0.02772067     0.34200
H2029       H  0.35590342  0.38116449  0.04838265     0.26000
H2030       H  0.51759700  0.40826233  0.02436544     0.32000
H2031       H  0.63275156  0.52595267  0.02907688     0.37900
H2032       H  0.37798125  0.45471969  0.05731478     0.32300
H2033       H  0.48380008  0.54357272  0.06293019     0.31200
H2034       H  0.57529770  0.63551953  0.05698191     0.32900
H2035       H  0.65834048  0.60290307  0.04394981     0.31800
H2036       H  0.43454046  0.40019608  0.05800319     0.35800
H2037       H  0.51050243  0.43332906  0.06276344     0.28600
H2038       H  0.45273547  0.55919388  0.02482053     0.32800
H2039       H  0.63615917  0.60828871  0.02891102     0.35700
H2040       H  0.50292990  0.58945069  0.06162048     0.28300
H2041       H  0.50589506  0.39819366  0.05856689     0.41100
H2042       H  0.41305082  0.37672253  0.03228343     0.31200
H2043       H  0.37286983  0.38599261  0.04154620     0.38800
H2044       H  0.62898544  0.61981335  0.04410078     0.30700
H2045       H  0.54476083  0.45485636  0.02407318     0.30700
H2046       H  0.49905734  0.57610983  0.02406391     0.31000
Zr2047     Zr  0.46306277  0.50678170  0.94750716     2.17500
O2048       O  0.47771498  0.54680462  0.93794206    -0.51400
O2049       O  0.39823444  0.49958926  0.94943517    -0.74600
O2050       O  0.42580049  0.46641230  0.93854009    -0.81400
O2051       O  0.52033564  0.59745930  0.95783633    -0.83100
O2052       O  0.42607551  0.40768624  0.93862829    -0.78700
O2053       O  0.48178104  0.57601481  0.94899140    -0.90400
O2054       O  0.37264417  0.46053316  0.95813005    -0.76300
O2055       O  0.42553240  0.43910502  0.95083659    -0.85800
O2056       O  0.45692895  0.50893986  0.95864316    -0.85500
O2057       O  0.50110752  0.47656817  0.94424261    -0.72300
O2058       O  0.52980562  0.54185776  0.95158249    -0.84400
Zr2059     Zr  0.52480469  0.44465551  0.96327533     2.26400
Zr2060     Zr  0.46411772  0.40896979  0.94793612     2.06300
Zr2061     Zr  0.52332185  0.54224556  0.96279382     2.10000
Zr2062     Zr  0.41963283  0.44108904  0.96192231     1.78800
O2063       O  0.59216259  0.59517022  0.96448006    -0.93200
O2064       O  0.35919760  0.37777243  0.95967009    -0.41000
O2065       O  0.48567816  0.47437260  0.96608961    -0.77600
O2066       O  0.45731792  0.40909990  0.95920576    -0.96300
O2067       O  0.53087320  0.44250580  0.95210743    -0.89600
O2068       O  0.56256856  0.51268308  0.95991549    -0.92500
C2069       C  0.37105174  0.48175976  0.95360512     1.01300
C2070       C  0.50325614  0.60295541  0.95304144     1.14200
C2071       C  0.41608614  0.43205637  0.93622801     1.05000
O2072       O  0.40053494  0.34660330  0.94805096    -0.94600
O2073       O  0.47496952  0.35548371  0.95156453    -0.90400
O2074       O  0.50555140  0.37549689  0.96110772    -0.83500
C2075       C  0.48961216  0.34983757  0.95664709     1.11600
O2076       O  0.58577034  0.54885313  0.93892540    -0.96600
Zr2077     Zr  0.56688574  0.51017407  0.94868115     1.88900
O2078       O  0.59507525  0.46365417  0.96213714    -0.73200
O2079       O  0.49099732  0.39248584  0.93876739    -0.52500
O2080       O  0.58133479  0.47812450  0.93999600    -0.97200
O2081       O  0.62487811  0.57691743  0.94989578    -0.54400
O2082       O  0.61701874  0.49750693  0.95291251    -0.73800
C2083       C  0.62169410  0.48131772  0.95785332     0.98600
O2084       O  0.53329255  0.41143736  0.97248043    -0.62600
O2085       O  0.49971472  0.57363616  0.97032129    -0.57400
O2086       O  0.52561822  0.46687524  0.97411666    -0.94100
O2087       O  0.53161235  0.52844130  0.97373533    -0.92500
O2088       O  0.40476055  0.46991884  0.97100582    -0.92800
O2089       O  0.39926599  0.39750398  0.97112074    -0.91600
C2090       C  0.52872918  0.49828374  0.97676581     1.17400
H2091       H  0.44372596  0.52358970  0.95980148     0.33400
H2092       H  0.44315146  0.38211382  0.96083085     0.44200
H2093       H  0.58849458  0.52672864  0.96192183     0.37700
H2094       H  0.50301111  0.47698259  0.93969592     0.34200
H2095       H  0.33889963  0.37677733  0.96262793     0.26000
H2096       H  0.51469278  0.39168694  0.94037239     0.32000
H2097       H  0.60950694  0.48506325  0.94061717     0.37900
H2098       H  0.43119305  0.49147575  0.97246997     0.32300
H2099       H  0.52017097  0.60239469  0.97028766     0.31200
H2100       H  0.59220496  0.62021690  0.96346903     0.32900
H2101       H  0.63763666  0.57607097  0.95390326     0.31800
H2102       H  0.42419092  0.40674546  0.97358429     0.35800
H2103       H  0.50687766  0.38733130  0.97319874     0.28600
H2104       H  0.45150190  0.54217104  0.93639633     0.32800
H2105       H  0.61398391  0.55647422  0.93813393     0.35700
H2106       H  0.47578453  0.57230276  0.96835826     0.28300
H2107       H  0.55093049  0.40111048  0.97110113     0.41100
H2108       H  0.39476588  0.33963401  0.95256824     0.31200
H2109       H  0.35022201  0.38146348  0.95547177     0.38800
H2110       H  0.61351958  0.59437268  0.95080843     0.30700
H2111       H  0.47115372  0.36425044  0.93782748     0.30700
H2112       H  0.48632962  0.53371942  0.93479519     0.31000
Zr2113     Zr  0.05726658  0.50222617  0.03622806     2.17500
O2114       O  0.10164499  0.50164477  0.02806162    -0.51400
O2115       O  0.10683617  0.57443699  0.03722901    -0.74600
O2116       O  0.03922751  0.50983466  0.02536173    -0.81400
O2117       O  0.09694621  0.45474160  0.04787485    -0.83100
O2118       O  0.97952203  0.50803537  0.02554585    -0.78700
O2119       O  0.10955251  0.48620630  0.03838214    -0.90400
O2120       O  0.08656757  0.59850881  0.04529981    -0.76300
O2121       O  0.02101480  0.53530680  0.03880221    -0.85800
O2122       O  0.06492321  0.51389340  0.04735362    -0.85500
O2123       O  0.98873743  0.45466292  0.03351177    -0.72300
O2124       O  0.03005911  0.43744430  0.04127433    -0.84400
Zr2125     Zr  0.93295424  0.43874339  0.05219600     2.26400
Zr2126     Zr  0.95289720  0.48866482  0.03611679     2.06300
Zr2127     Zr  0.03691898  0.44994324  0.05238937     2.10000
Zr2128     Zr  0.02768324  0.54577911  0.04994552     1.78800
O2129       O  0.04544089  0.39346646  0.05520176    -0.93200
O2130       O  0.01324641  0.59931263  0.04776879    -0.41000
O2131       O  0.00088875  0.48305448  0.05526730    -0.77600
O2132       O  0.95961264  0.50262277  0.04718932    -0.96300
O2133       O  0.92513672  0.42531629  0.04119253    -0.89600
O2134       O  0.96869853  0.40493711  0.04975981    -0.92500
C2135       C  0.11082731  0.60287593  0.04089588     1.01300
C2136       C  0.11782439  0.46902041  0.04284452     1.14200
C2137       C  0.00978794  0.51062168  0.02263050     1.05000
O2138       O  0.95169733  0.55003320  0.03403381    -0.94600
O2139       O  0.88979560  0.47906750  0.04016197    -0.90400
O2140       O  0.87570345  0.44623713  0.04955818    -0.83500
C2141       C  0.86765164  0.46326242  0.04503839     1.11600
O2142       O  0.99079120  0.36796686  0.03108873    -0.96600
Zr2143     Zr  0.96109428  0.39192378  0.03883587     1.88900
O2144       O  0.87901464  0.37095961  0.05093505    -0.73200
O2145       O  0.90101440  0.44913256  0.02843096    -0.52500
O2146       O  0.91992184  0.36645562  0.02939908    -0.97200
O2147       O  0.96575088  0.33512028  0.04286260    -0.54400
O2148       O  0.89327299  0.34594790  0.04225643    -0.73800
C2149       C  0.87016966  0.34382908  0.04676962     0.98600
O2150       O  0.90735456  0.45740429  0.06133840    -0.62600
O2151       O  0.08446095  0.49218960  0.06041551    -0.57400
O2152       O  0.94031980  0.41006052  0.06190634    -0.94100
O2153       O  0.00180674  0.41547475  0.06198087    -0.92500
O2154       O  0.07680132  0.57109788  0.05843080    -0.92800
O2155       O  0.00289727  0.56533149  0.05902935    -0.91600
C2156       C  0.96733815  0.40434785  0.06441167     1.17400
H2157       H  0.09271057  0.53035436  0.04847704     0.33400
H2158       H  0.94489940  0.51564793  0.04843092     0.44200
H2159       H  0.95818931  0.38012642  0.05204706     0.37700
H2160       H  0.98560487  0.44722207  0.02912056     0.34200
H2161       H  0.03438479  0.62294826  0.05001886     0.26000
H2162       H  0.89736647  0.46889258  0.02597290     0.32000
H2163       H  0.89862113  0.37333115  0.02996288     0.37900
H2164       H  0.08595091  0.60002477  0.05864702     0.32300
H2165       H  0.07777030  0.47486389  0.06418326     0.31200
H2166       H  0.06139178  0.40168169  0.05914269     0.32900
H2167       H  0.94279541  0.32076946  0.04575837     0.31800
H2168       H  0.98345314  0.53977893  0.06104027     0.35800
H2169       H  0.92983340  0.46926421  0.06438331     0.28600
H2170       H  0.11162789  0.52691557  0.02567636     0.32800
H2171       H  0.97072204  0.33948513  0.03037726     0.35700
H2172       H  0.11051916  0.49592398  0.05898967     0.28300
H2173       H  0.90465876  0.48043221  0.05995086     0.41100
H2174       H  0.93796110  0.54543667  0.02991285     0.31200
H2175       H  0.01962523  0.60565089  0.04324557     0.38800
H2176       H  0.98956853  0.34697149  0.04564351     0.30700
H2177       H  0.91360522  0.43905993  0.02544074     0.30700
H2178       H  0.08442053  0.48016019  0.02506563     0.31000
Zr2179     Zr  0.06611937  0.52469230  0.94784246     2.17500
O2180       O  0.08924374  0.50384116  0.93867789    -0.51400
O2181       O  0.12099917  0.59161874  0.94910210    -0.74600
O2182       O  0.06248595  0.55797133  0.93835719    -0.81400
O2183       O  0.10349151  0.47959786  0.95983957    -0.83100
O2184       O  0.00119883  0.55281612  0.93786433    -0.78700
O2185       O  0.12024520  0.51238865  0.95043693    -0.90400
O2186       O  0.10579873  0.61974950  0.95726837    -0.76300
O2187       O  0.03339067  0.56113201  0.95039566    -0.85800
O2188       O  0.07296353  0.53526389  0.95896793    -0.85500
O2189       O  0.99847186  0.48369087  0.94444933    -0.72300
O2190       O  0.03659754  0.45980262  0.95254183    -0.84400
Zr2191     Zr  0.93956629  0.46403801  0.96321864     2.26400
Zr2192     Zr  0.96522466  0.51934312  0.94743540     2.06300
Zr2193     Zr  0.04076742  0.47046955  0.96366719     2.10000
Zr2194     Zr  0.04017489  0.57161565  0.96142211     1.78800
O2195       O  0.03089133  0.40359233  0.96512072    -0.93200
O2196       O  0.03260008  0.62796056  0.95815545    -0.41000
O2197       O  0.00799938  0.50695434  0.96622736    -0.77600
O2198       O  0.97077111  0.53040873  0.95863851    -0.96300
O2199       O  0.93370524  0.45414340  0.95206800    -0.89600
O2200       O  0.97286115  0.42796027  0.96064227    -0.92500
C2201       C  0.12895928  0.62061736  0.95284274     1.01300
C2202       C  0.12689677  0.49543517  0.95512742     1.14200
C2203       C  0.03623843  0.56410033  0.93565407     1.05000
O2204       O  0.96226849  0.58033803  0.94598822    -0.94600
O2205       O  0.90185711  0.51050190  0.95089450    -0.90400
O2206       O  0.88926729  0.48234880  0.96064182    -0.83500
C2207       C  0.88070792  0.49740208  0.95590232     1.11600
O2208       O  0.99441804  0.40162991  0.94028525    -0.96600
Zr2209     Zr  0.96862665  0.41982194  0.94942625     1.88900
O2210       O  0.88886686  0.39272880  0.96185961    -0.73200
O2211       O  0.91873675  0.48387632  0.93886928    -0.52500
O2212       O  0.92058910  0.39785448  0.94077337    -0.97200
O2213       O  0.97882927  0.36353836  0.95162045    -0.54400
O2214       O  0.90749712  0.36855525  0.95358669    -0.73800
C2215       C  0.88354793  0.36471376  0.95799752     0.98600
O2216       O  0.89509698  0.45379101  0.97208400    -0.62600
O2217       O  0.09027998  0.49524266  0.97212599    -0.57400
O2218       O  0.95986684  0.46570428  0.97427908    -0.94100
O2219       O  0.01537084  0.45958870  0.97432515    -0.92500
O2220       O  0.08432150  0.59411562  0.97057156    -0.92800
O2221       O  0.01730133  0.59545062  0.97022421    -0.91600
C2222       C  0.98757743  0.46243255  0.97714396     1.17400
H2223       H  0.10061568  0.54987119  0.96023611     0.33400
H2224       H  0.95728243  0.54458428  0.95993175     0.44200
H2225       H  0.96161968  0.40288676  0.96288873     0.37700
H2226       H  0.99747316  0.48021250  0.93992711     0.34200
H2227       H  0.05400289  0.65119372  0.96044186     0.26000
H2228       H  0.91712914  0.50500722  0.93646132     0.32000
H2229       H  0.90516930  0.36833685  0.94110307     0.37900
H2230       H  0.08146593  0.56931678  0.97243827     0.32300
H2231       H  0.09905469  0.47524676  0.97254151     0.31200
H2232       H  0.04628714  0.40553213  0.96897444     0.32900
H2233       H  0.95560675  0.34011578  0.94967276     0.31800
H2234       H  0.99299286  0.57136802  0.97176327     0.35800
H2235       H  0.89615926  0.47969834  0.97273663     0.28600
H2236       H  0.10999284  0.52888969  0.93669295     0.32800
H2237       H  0.97412540  0.37370901  0.93924369     0.35700
H2238       H  0.11378563  0.51935583  0.97040356     0.28300
H2239       H  0.86768615  0.43544070  0.97052253     0.41100
H2240       H  0.96164783  0.58964452  0.95031433     0.31200
H2241       H  0.04124552  0.63273137  0.95369176     0.38800
H2242       H  0.97439996  0.35875973  0.95620984     0.30700
H2243       H  0.93326579  0.47507411  0.93604991     0.30700
H2244       H  0.06654063  0.49278398  0.93567059     0.31000
Zr2245     Zr  0.45523699  0.92009987  0.03531171     2.17500
O2246       O  0.41064787  0.87429343  0.02725184    -0.51400
O2247       O  0.47630136  0.87109019  0.03748452    -0.74600
O2248       O  0.48602110  0.93029983  0.02487450    -0.81400
O2249       O  0.36400460  0.88207660  0.04625990    -0.83100
O2250       O  0.54271501  0.99087125  0.02469225    -0.78700
O2251       O  0.38794329  0.86737086  0.03748426    -0.90400
O2252       O  0.51264283  0.88982748  0.04652956    -0.76300
O2253       O  0.52322653  0.95499121  0.03858190    -0.85800
O2254       O  0.45440098  0.91633913  0.04653528    -0.85500
O2255       O  0.47871260  0.98682182  0.03150475    -0.72300
O2256       O  0.41686383  0.95004967  0.03891911    -0.84400
Zr2257     Zr  0.51233880  0.04982829  0.04973151     2.26400
Zr2258     Zr  0.54728119  0.02149500  0.03484643     2.06300
Zr2259     Zr  0.41717574  0.94670687  0.05020230     2.10000
Zr2260     Zr  0.52225755  0.95306658  0.04984617     1.78800
O2261       O  0.35222435  0.94254370  0.05086746    -0.93200
O2262       O  0.58924146  0.96267048  0.04853530    -0.41000
O2263       O  0.48543810  0.98318061  0.05368512    -0.77600
O2264       O  0.55002035  0.01991215  0.04611968    -0.96300
O2265       O  0.51145532  0.05296749  0.03855069    -0.89600
O2266       O  0.44359601  0.01412876  0.04665406    -0.92500
C2267       C  0.49584307  0.86581802  0.04193831     1.01300
C2268       C  0.36062554  0.85929571  0.04158157     1.14200
C2269       C  0.51661028  0.95837241  0.02204191     1.05000
O2270       O  0.60688166  0.01506049  0.03473661    -0.94600
O2271       O  0.59851022  0.08679288  0.03822324    -0.90400
O2272       O  0.57854043  0.10532417  0.04705935    -0.83500
C2273       C  0.60405755  0.11131118  0.04269676     1.11600
O2274       O  0.39393748  0.98762397  0.02708175    -0.96600
Zr2275     Zr  0.44325348  0.01800464  0.03551348     1.88900
O2276       O  0.50069487  0.10408542  0.04726363    -0.73200
O2277       O  0.57194511  0.07100616  0.02641033    -0.52500
O2278       O  0.46740736  0.05387373  0.02557669    -0.97200
O2279       O  0.38038238  0.01580142  0.03793858    -0.54400
O2280       O  0.46485021  0.08727846  0.03814868    -0.73800
C2281       C  0.48437385  0.11182524  0.04262357     0.98600
O2282       O  0.55512950  0.07803038  0.05898866    -0.62600
O2283       O  0.40548735  0.90224836  0.05911395    -0.57400
O2284       O  0.47427063  0.04621524  0.05904844    -0.94100
O2285       O  0.41793343  0.98489262  0.05947886    -0.92500
O2286       O  0.49386151  0.91103621  0.05913048    -0.92800
O2287       O  0.56431524  0.98010448  0.05918239    -0.91600
C2288       C  0.44166312  0.02007861  0.06169671     1.17400
H2289       H  0.44211736  0.88889551  0.04790561     0.33400
H2290       H  0.57737554  0.03504148  0.04757589     0.44200
H2291       H  0.42907665  0.02600738  0.04847223     0.37700
H2292       H  0.47622344  0.98750330  0.02698665     0.34200
H2293       H  0.58839024  0.93936283  0.05064149     0.26000
H2294       H  0.59428374  0.06915567  0.02447115     0.32000
H2295       H  0.45805571  0.07352369  0.02553635     0.37900
H2296       H  0.50790231  0.89554807  0.05945766     0.32300
H2297       H  0.37787804  0.89376300  0.06048769     0.31200
H2298       H  0.33982170  0.92674360  0.05472837     0.32900
H2299       H  0.38719024  0.03724360  0.04107615     0.31800
H2300       H  0.58263284  0.00867184  0.05821208     0.35800
H2301       H  0.54338991  0.05669899  0.06221939     0.28600
H2302       H  0.42421070  0.86023024  0.02557576     0.32800
H2303       H  0.38807637  0.00858244  0.02565106     0.35700
H2304       H  0.40362226  0.87781748  0.05727914     0.28300
H2305       H  0.58065690  0.07930697  0.05788637     0.41100
H2306       H  0.62294396  0.03102915  0.03838728     0.31200
H2307       H  0.59122625  0.95814155  0.04398834     0.38800
H2308       H  0.36464401  0.99064958  0.04032730     0.30700
H2309       H  0.55060200  0.06055184  0.02316508     0.30700
H2310       H  0.41066804  0.89122502  0.02373899     0.31000
Zr2311     Zr  0.48565452  0.92074628  0.94791169     2.17500
O2312       O  0.44454372  0.89323216  0.93847915    -0.51400
O2313       O  0.50156920  0.86855660  0.94995460    -0.74600
O2314       O  0.52726263  0.92653911  0.93885484    -0.81400
O2315       O  0.39946015  0.88174769  0.95905723    -0.83100
O2316       O  0.58056257  0.98986054  0.93867231    -0.78700
O2317       O  0.41767907  0.86591710  0.94978643    -0.90400
O2318       O  0.54613403  0.89069622  0.95806238    -0.76300
O2319       O  0.55453402  0.96050107  0.95068480    -0.85800
O2320       O  0.48855202  0.91570239  0.95912258    -0.85500
O2321       O  0.50674425  0.98743218  0.94433446    -0.72300
O2322       O  0.44603622  0.94640830  0.95237506    -0.84400
Zr2323     Zr  0.53829593  0.04847852  0.96299043     2.26400
Zr2324     Zr  0.57525691  0.02746024  0.94750846     2.06300
Zr2325     Zr  0.45083713  0.94339513  0.96358392     2.10000
Zr2326     Zr  0.55758560  0.95503104  0.96174404     1.78800
O2327       O  0.39440357  0.95255898  0.96609953    -0.93200
O2328       O  0.62388584  0.96670847  0.95906302    -0.41000
O2329       O  0.51952079  0.98205433  0.96606095    -0.77600
O2330       O  0.57987286  0.02324648  0.95875084    -0.96300
O2331       O  0.53574727  0.05358295  0.95180251    -0.89600
O2332       O  0.46938358  0.00953076  0.96023156    -0.92500
C2333       C  0.52478888  0.86473115  0.95387502     1.01300
C2334       C  0.39250609  0.85922281  0.95424192     1.14200
C2335       C  0.56016572  0.95416747  0.93645621     1.05000
O2336       O  0.64417119  0.04411082  0.94575360    -0.94600
O2337       O  0.62489116  0.09411415  0.95124095    -0.90400
O2338       O  0.60451999  0.10347267  0.96081936    -0.83500
C2339       C  0.62947540  0.11472322  0.95626261     1.11600
O2340       O  0.42486347  0.98173434  0.93972723    -0.96600
Zr2341     Zr  0.46727386  0.01280218  0.94893774     1.88900
O2342       O  0.51048924  0.09297897  0.96142210    -0.73200
O2343       O  0.57511552  0.06532940  0.93832756    -0.52500
O2344       O  0.49024237  0.05943488  0.94008876    -0.97200
O2345       O  0.39792002  0.99464138  0.95080883    -0.54400
O2346       O  0.47255529  0.07394425  0.95254272    -0.73800
C2347       C  0.48896369  0.09743910  0.95721260     0.98600
O2348       O  0.56318360  0.09561407  0.97178122    -0.62600
O2349       O  0.42317402  0.89121994  0.97160370    -0.57400
O2350       O  0.52505571  0.02727584  0.97409599    -0.94100
O2351       O  0.47121492  0.96470446  0.97445239    -0.92500
O2352       O  0.53686516  0.91250104  0.97107737    -0.92800
O2353       O  0.60340924  0.98415114  0.97062054    -0.91600
C2354       C  0.49963994  0.99586326  0.97712991     1.17400
H2355       H  0.47748538  0.88837859  0.96048560     0.33400
H2356       H  0.60731712  0.03921428  0.96015143     0.44200
H2357       H  0.45344644  0.01904183  0.96228889     0.37700
H2358       H  0.50471834  0.98765605  0.93979168     0.34200
H2359       H  0.62735138  0.94744254  0.96169181     0.26000
H2360       H  0.58064342  0.09144648  0.94004040     0.32000
H2361       H  0.47177190  0.07023045  0.93991961     0.37900
H2362       H  0.51614955  0.91681608  0.97307035     0.32300
H2363       H  0.39386722  0.88016241  0.97143310     0.31200
H2364       H  0.37274557  0.93396480  0.96324191     0.32900
H2365       H  0.39809330  0.00679521  0.95492587     0.31800
H2366       H  0.59101461  0.99588593  0.97332269     0.35800
H2367       H  0.59001189  0.09963865  0.97279744     0.28600
H2368       H  0.44879331  0.87110660  0.93712238     0.32800
H2369       H  0.41456577  0.99964185  0.93848059     0.35700
H2370       H  0.42739412  0.86959784  0.96997337     0.28300
H2371       H  0.56839525  0.12152320  0.97001691     0.41100
H2372       H  0.65253753  0.03763010  0.94979505     0.31200
H2373       H  0.62120204  0.95641503  0.95470745     0.38800
H2374       H  0.38393651  0.96553432  0.95165017     0.30700
H2375       H  0.59969429  0.07134711  0.93599452     0.30700
H2376       H  0.45752881  0.91397908  0.93518383     0.31000
C2377       C  0.49982225  0.94512550  0.00426662     0.15900
C2378       C  0.48108635  0.93487524  0.99834936    -0.33100
C2379       C  0.49711870  0.96362567  0.99354057     0.20300
C2380       C  0.53091530  0.00059431  0.99451475     0.02500
C2381       C  0.55005109  0.01062238  0.00040975    -0.22800
C2382       C  0.53345951  0.98219043  0.00526343     0.11700
S2383       S  0.48172819  0.91658648  0.01090764    -0.06500
C2384       C  0.51912908  0.95544074  0.01513773    -0.10000
C2385       C  0.54506809  0.98801690  0.01146752    -0.26600
S2386       S  0.54560009  0.03117462  0.98804699    -0.03800
C2387       C  0.50557909  0.99380142  0.98398485    -0.17200
C2388       C  0.48239165  0.95963124  0.98753402    -0.15200
H2389       H  0.45433196  0.90626094  0.99758746     0.20100
H2390       H  0.57599807  0.03975584  0.00123187     0.16200
H2391       H  0.56888869  0.01600419  0.01331881     0.18700
H2392       H  0.45661119  0.93280046  0.98576590     0.12000
C2393       C  0.71792277  0.21891891  0.96007120     0.15900
C2394       C  0.74427312  0.25707317  0.96251690    -0.33100
C2395       C  0.78342945  0.27714725  0.96014588     0.20300
C2396       C  0.79554167  0.25957866  0.95560551     0.02500
C2397       C  0.76915845  0.22200122  0.95309275    -0.22800
C2398       C  0.73011296  0.20224236  0.95539716     0.11700
S2399       S  0.66970089  0.18881281  0.96244463    -0.06500
C2400       C  0.66594756  0.15390038  0.95697869    -0.10000
C2401       C  0.70036982  0.16527125  0.95354559    -0.26600
S2402       S  0.84359967  0.28790163  0.95327213    -0.03800
C2403       C  0.84759396  0.32495038  0.95827704    -0.17200
C2404       C  0.81339347  0.31500217  0.96172240    -0.15200
H2405       H  0.73470140  0.27044261  0.96609865     0.20100
H2406       H  0.77868507  0.20874834  0.94948167     0.16200
H2407       H  0.70376927  0.14704962  0.94999411     0.18700
H2408       H  0.81014894  0.33477525  0.96497827     0.12000
C2409       C  0.23527278  0.70586305  0.94951392     0.15900
C2410       C  0.27485667  0.73009296  0.94745137    -0.33100
C2411       C  0.29885233  0.76569727  0.95077667     0.20300
C2412       C  0.28379841  0.77631608  0.95589663     0.02500
C2413       C  0.24436366  0.75247795  0.95789319    -0.22800
C2414       C  0.22054609  0.71712643  0.95459662     0.11700
S2415       S  0.20184096  0.66053967  0.94639951    -0.06500
C2416       C  0.16802533  0.65688743  0.95205279    -0.10000
C2417       C  0.18194057  0.68945892  0.95603382    -0.26600
S2418       S  0.31696342  0.81956211  0.95945987    -0.03800
C2419       C  0.35200113  0.82421857  0.95399161    -0.17200
C2420       C  0.33828975  0.79339282  0.94961833    -0.15200
H2421       H  0.28652840  0.72132128  0.94350452     0.20100
H2422       H  0.23290031  0.76088766  0.96191276     0.16200
H2423       H  0.16523257  0.69216252  0.95991467     0.18700
H2424       H  0.35608861  0.79126492  0.94586029     0.12000
C2425       C  0.76146082  0.26049457  0.04885664     0.15900
C2426       C  0.72151027  0.23579129  0.05068952    -0.33100
C2427       C  0.69690805  0.20372953  0.04670518     0.20300
C2428       C  0.71148173  0.19707090  0.04113501     0.02500
C2429       C  0.75127350  0.22144565  0.03934286    -0.22800
C2430       C  0.77585336  0.25298884  0.04334332     0.11700
S2431       S  0.79603696  0.30175493  0.05286314    -0.06500
C2432       C  0.83005003  0.30851004  0.04704403    -0.10000
C2433       C  0.81519658  0.28002837  0.04232039    -0.26600
S2434       S  0.67773116  0.15682282  0.03694690    -0.03800
C2435       C  0.64341684  0.14787923  0.04280768    -0.17200
C2436       C  0.65757959  0.17542006  0.04770412    -0.15200
H2437       H  0.71016089  0.24129162  0.05501359     0.20100
H2438       H  0.76263409  0.21596670  0.03501632     0.16200
H2439       H  0.83188677  0.27989454  0.03822767     0.18700
H2440       H  0.64051756  0.17409508  0.05183666     0.12000
C2441       C  0.19551584  0.71138117  0.04269640     0.15900
C2442       C  0.22122841  0.74963990  0.04509757    -0.33100
C2443       C  0.25941888  0.77126030  0.04246766     0.20300
C2444       C  0.27113594  0.75576419  0.03755008     0.02500
C2445       C  0.24527464  0.71733886  0.03513031    -0.22800
C2446       C  0.20724373  0.69521029  0.03787765     0.11700
S2447       S  0.14924318  0.68017173  0.04558138    -0.06500
C2448       C  0.14549916  0.64385630  0.04041515    -0.10000
C2449       C  0.17851002  0.65623117  0.03651956    -0.26600
S2450       S  0.31881534  0.78681884  0.03503514    -0.03800
C2451       C  0.32320537  0.82079413  0.04073573    -0.17200
C2452       C  0.28914553  0.80841411  0.04434349    -0.15200
H2453       H  0.21211965  0.76167357  0.04895348     0.20100
H2454       H  0.25471537  0.70495431  0.03137301     0.16200
H2455       H  0.18194144  0.63745923  0.03308094     0.18700
H2456       H  0.28628453  0.82557171  0.04813805     0.12000
C2457       C  0.98445590  0.49890298  0.00495488     0.15900
C2458       C  0.96549062  0.49280142  0.99907233    -0.33100
C2459       C  0.98050226  0.48077629  0.99402541     0.20300
C2460       C  0.01277507  0.47477218  0.99482946     0.02500
C2461       C  0.03167277  0.48075791  0.00071492    -0.22800
C2462       C  0.01694178  0.49324393  0.00574360     0.11700
S2463       S  0.96979030  0.51205712  0.01169234    -0.06500
C2464       C  0.00789851  0.51011149  0.01565827    -0.10000
C2465       C  0.03078932  0.49999395  0.01185745    -0.26600
S2466       S  0.02752851  0.46174683  0.98809895    -0.03800
C2467       C  0.99013032  0.46481562  0.98410132    -0.17200
C2468       C  0.96720329  0.47492818  0.98788158    -0.15200
H2469       H  0.94019925  0.49735389  0.99845416     0.20100
H2470       H  0.05694985  0.47617453  0.00133304     0.16200
H2471       H  0.05483985  0.49562898  0.01354184     0.18700
H2472       H  0.94325312  0.47941640  0.98618633     0.12000
C2473       C  0.71886429  0.48039844  0.96119622     0.15900
C2474       C  0.74974115  0.47481104  0.96351660    -0.33100
C2475       C  0.78411556  0.48852134  0.95977923     0.20300
C2476       C  0.78776017  0.50736928  0.95404430     0.02500
C2477       C  0.75717302  0.51321306  0.95176039    -0.22800
C2478       C  0.72280104  0.49914073  0.95544806     0.11700
S2479       S  0.67391910  0.46474645  0.96483755    -0.06500
C2480       C  0.66063457  0.48366513  0.95851000    -0.10000
C2481       C  0.68968284  0.50113605  0.95389459    -0.26600
S2482       S  0.83086441  0.52060108  0.95008713    -0.03800
C2483       C  0.84403731  0.49984426  0.95615760    -0.17200
C2484       C  0.81658958  0.48430353  0.96104284    -0.15200
H2485       H  0.74682856  0.45983999  0.96796818     0.20100
H2486       H  0.75974680  0.52747975  0.94724788     0.16200
H2487       H  0.68661288  0.51431216  0.94956602     0.18700
H2488       H  0.81971948  0.46976588  0.96519921     0.12000
C2489       C  0.21813354  0.48414101  0.95796057     0.15900
C2490       C  0.24596640  0.47464548  0.96037604    -0.33100
C2491       C  0.27883235  0.48310723  0.95660567     0.20300
C2492       C  0.28422673  0.50077027  0.95071808     0.02500
C2493       C  0.25646361  0.51067079  0.94831556    -0.22800
C2494       C  0.22315597  0.50166740  0.95206513     0.11700
S2495       S  0.17564185  0.47456051  0.96175050    -0.06500
C2496       C  0.16400795  0.49395688  0.95530283    -0.10000
C2497       C  0.19206802  0.50757760  0.95050829    -0.26600
S2498       S  0.32607248  0.50802759  0.94687149    -0.03800
C2499       C  0.33588606  0.48661844  0.95325685    -0.17200
C2500       C  0.30834173  0.47495522  0.95809137    -0.15200
H2501       H  0.24184241  0.46066584  0.96495563     0.20100
H2502       H  0.26033284  0.52419225  0.94370424     0.16200
H2503       H  0.18961814  0.52056127  0.94611830     0.18700
H2504       H  0.30982443  0.46124855  0.96246816     0.12000
C2505       C  0.46659099  0.18281653  0.95520405     0.15900
C2506       C  0.45596758  0.20983193  0.95272693    -0.33100
C2507       C  0.47207925  0.24729213  0.95561856     0.20300
C2508       C  0.49668891  0.25693975  0.96087172     0.02500
C2509       C  0.50685388  0.22962924  0.96341449    -0.22800
C2510       C  0.49168341  0.19251829  0.96039915     0.11700
S2511       S  0.45312692  0.13766191  0.95195288    -0.06500
C2512       C  0.48238726  0.13183028  0.95753409    -0.10000
C2513       C  0.50073933  0.16315176  0.96179886    -0.26600
S2514       S  0.51402929  0.30429385  0.96358954    -0.03800
C2515       C  0.48837706  0.31143046  0.95752818    -0.17200
C2516       C  0.46725262  0.27846472  0.95365731    -0.15200
H2517       H  0.43708845  0.20245984  0.94858656     0.20100
H2518       H  0.52677163  0.23748900  0.96743054     0.16200
H2519       H  0.52082724  0.16509090  0.96553193     0.18700
H2520       H  0.44958107  0.27743200  0.94961063     0.12000
C2521       C  0.53490140  0.77188487  0.95598591     0.15900
C2522       C  0.54192953  0.74204929  0.95829286    -0.33100
C2523       C  0.52619640  0.70645233  0.95485822     0.20300
C2524       C  0.50469370  0.70078305  0.94933377     0.02500
C2525       C  0.49795731  0.73084868  0.94698702    -0.22800
C2526       C  0.51336572  0.76639386  0.95046808     0.11700
S2527       S  0.54997054  0.81633493  0.95965306    -0.06500
C2528       C  0.52665415  0.82768766  0.95373662    -0.10000
C2529       C  0.50858348  0.79847115  0.94913533    -0.26600
S2530       S  0.48671942  0.65463329  0.94603007    -0.03800
C2531       C  0.50818661  0.64291223  0.95220114    -0.17200
C2532       C  0.52851607  0.67350354  0.95650486    -0.15200
H2533       H  0.55827565  0.74610056  0.96264510     0.20100
H2534       H  0.48078245  0.72642005  0.94271730     0.16200
H2535       H  0.49224661  0.80028295  0.94510893     0.18700
H2536       H  0.54331404  0.67140759  0.96071508     0.12000
C2537       C  0.73873262  0.50851263  0.04294981     0.15900
C2538       C  0.77449799  0.51305817  0.04054128    -0.33100
C2539       C  0.79044520  0.49155741  0.04346148     0.20300
C2540       C  0.77223065  0.46733036  0.04864628     0.02500
C2541       C  0.73655821  0.46304155  0.05109138    -0.22800
C2542       C  0.72007865  0.48388886  0.04808174     0.11700
S2543       S  0.71348338  0.53013657  0.03981573    -0.06500
C2544       C  0.67691948  0.50534252  0.04541660    -0.10000
C2545       C  0.68453305  0.48197285  0.04953168    -0.26600
S2546       S  0.79669717  0.44399675  0.05151524    -0.03800
C2547       C  0.83148660  0.46673459  0.04559697    -0.17200
C2548       C  0.82424911  0.49116786  0.04167346    -0.15200
H2549       H  0.78883994  0.53189433  0.03648614     0.20100
H2550       H  0.72192930  0.44376498  0.05508922     0.16200
H2551       H  0.66463755  0.46369423  0.05326002     0.18700
H2552       H  0.84312521  0.50832040  0.03777076     0.12000
C2553       C  0.27831390  0.48341656  0.03666040     0.15900
C2554       C  0.24893417  0.49267223  0.03477621    -0.33100
C2555       C  0.21362690  0.47676552  0.03835994     0.20300
C2556       C  0.20767843  0.45232847  0.04352030     0.02500
C2557       C  0.23654843  0.44243226  0.04531019    -0.22800
C2558       C  0.27195112  0.45872636  0.04179558     0.11700
S2559       S  0.32465748  0.50207241  0.03330623    -0.06500
C2560       C  0.33546413  0.47627484  0.03889752    -0.10000
C2561       C  0.30430814  0.45432359  0.04306540    -0.26600
S2562       S  0.16430202  0.43795074  0.04751056    -0.03800
C2563       C  0.15379682  0.46523778  0.04220588    -0.17200
C2564       C  0.18251403  0.48403001  0.03754156    -0.15200
H2565       H  0.25386322  0.51232526  0.03081651     0.20100
H2566       H  0.23210744  0.42376703  0.04938907     0.16200
H2567       H  0.30568448  0.43698366  0.04697630     0.18700
H2568       H  0.18126117  0.50289355  0.03387054     0.12000
C2569       C  0.49054512  0.21242865  0.03959161     0.15900
C2570       C  0.48782912  0.24445692  0.03710182    -0.33100
C2571       C  0.50483272  0.27991782  0.04058442     0.20300
C2572       C  0.52388660  0.28364542  0.04630304     0.02500
C2573       C  0.52681520  0.25153736  0.04879698    -0.22800
C2574       C  0.50960619  0.21585927  0.04530165     0.11700
S2575       S  0.47134760  0.16691469  0.03605833    -0.06500
C2576       C  0.48899166  0.15195387  0.04233655    -0.10000
C2577       C  0.50889839  0.18113764  0.04690391    -0.26600
S2578       S  0.54130499  0.32912030  0.04985592    -0.03800
C2579       C  0.52235113  0.34284917  0.04356745    -0.17200
C2580       C  0.50406190  0.31371468  0.03897914    -0.15200
H2581       H  0.47279531  0.24174933  0.03265722     0.20100
H2582       H  0.54147447  0.25411224  0.05327440     0.16200
H2583       H  0.52221540  0.17720257  0.05114886     0.18700
H2584       H  0.48988516  0.31666128  0.03475740     0.12000
C2585       C  0.48636690  0.70538077  0.03877567     0.15900
C2586       C  0.47600862  0.73244728  0.03621355    -0.33100
C2587       C  0.48926725  0.76867504  0.03940095     0.20300
C2588       C  0.51176024  0.77733008  0.04488965     0.02500
C2589       C  0.52210559  0.75035828  0.04744389    -0.22800
C2590       C  0.50888447  0.71423927  0.04426253     0.11700
S2591       S  0.47321425  0.65992106  0.03563217    -0.06500
C2592       C  0.49839566  0.65284671  0.04177389    -0.10000
C2593       C  0.51584944  0.68417959  0.04602197    -0.26600
S2594       S  0.52457259  0.82221148  0.04814183    -0.03800
C2595       C  0.49934909  0.82972958  0.04205999    -0.17200
C2596       C  0.48202942  0.79881892  0.03772532    -0.15200
H2597       H  0.45834890  0.72552474  0.03194047     0.20100
H2598       H  0.53959620  0.75720068  0.05173635     0.16200
H2599       H  0.53274579  0.68496468  0.05015896     0.18700
H2600       H  0.46473109  0.79818003  0.03365356     0.12000
C2601       C  0.47580927  0.45591506  0.00391900     0.15900
C2602       C  0.48336279  0.44291563  0.99817596    -0.33100
C2603       C  0.50093961  0.47116778  0.99332869     0.20300
C2604       C  0.51023122  0.51049655  0.99415041     0.02500
C2605       C  0.50256205  0.52344800  0.99988336    -0.22800
C2606       C  0.48514650  0.49525823  0.00473990     0.11700
S2607       S  0.45814340  0.42723531  0.01053968    -0.06500
C2608       C  0.46408215  0.46884123  0.01452159    -0.10000
C2609       C  0.47784592  0.50270614  0.01078015    -0.26600
S2610       S  0.52949523  0.53969976  0.98761643    -0.03800
C2611       C  0.52472474  0.49847008  0.98368244    -0.17200
C2612       C  0.50962207  0.46415547  0.98735158    -0.15200
H2613       H  0.47629857  0.41224709  0.99754116     0.20100
H2614       H  0.51006752  0.55422983  0.00054055     0.16200
H2615       H  0.48547258  0.53205415  0.01251355     0.18700
H2616       H  0.50310871  0.43509422  0.98563746     0.12000
C2617       C  0.94802475  0.30274537  0.08744569     0.15900
C2618       C  0.97186052  0.32276855  0.08219936    -0.33100
C2619       C  0.95999008  0.34497045  0.07842857     0.20300
C2620       C  0.92616790  0.34730783  0.07985862     0.02500
C2621       C  0.90271609  0.32771114  0.08511219    -0.22800
C2622       C  0.91429246  0.30530449  0.08883046     0.11700
S2623       S  0.95647415  0.27361206  0.09259159    -0.06500
C2624       C  0.91411416  0.26502789  0.09663538    -0.10000
C2625       C  0.89474196  0.28374956  0.09406101    -0.26600
S2626       S  0.91561811  0.37425508  0.07464186    -0.03800
C2627       C  0.95720411  0.38267534  0.07043806    -0.17200
C2628       C  0.97817306  0.36549618  0.07301479    -0.15200
H2629       H  0.99814584  0.32076517  0.08106871     0.20100
H2630       H  0.87621197  0.32940433  0.08620693     0.16200
H2631       H  0.86789248  0.28204312  0.09595489     0.18700
H2632       H  0.00455672  0.36703724  0.07095303     0.12000
C2633       C  0.80165860  0.13712809  0.17070362     0.15900
C2634       C  0.78491703  0.12970371  0.16463355    -0.33100
C2635       C  0.80446690  0.12097650  0.15984250     0.20300
C2636       C  0.83890555  0.11930497  0.16104676     0.02500
C2637       C  0.85517146  0.12592001  0.16714106    -0.22800
C2638       C  0.83593061  0.13515296  0.17190872     0.11700
S2639       S  0.78311397  0.14914470  0.17713758    -0.06500
C2640       C  0.82187301  0.15133302  0.18151546    -0.10000
C2641       C  0.84767082  0.14329150  0.17808890    -0.26600
S2642       S  0.86035893  0.11233118  0.15448671    -0.03800
C2643       C  0.82275538  0.11203761  0.15003260    -0.17200
C2644       C  0.79473974  0.11624143  0.15355536    -0.15200
H2645       H  0.75837735  0.13160739  0.16365376     0.20100
H2646       H  0.88229265  0.12503522  0.16808981     0.16200
H2647       H  0.87321323  0.14252306  0.18004800     0.18700
H2648       H  0.77015023  0.11865447  0.15157289     0.12000
C2649       C  0.08212461  0.17176234  0.12261239     0.15900
C2650       C  0.12134995  0.18174582  0.12114135    -0.33100
C2651       C  0.13679256  0.15972168  0.12404444     0.20300
C2652       C  0.11451411  0.12923642  0.12827505     0.02500
C2653       C  0.07532941  0.11963564  0.12983115    -0.22800
C2654       C  0.05969346  0.14157520  0.12688656     0.11700
S2655       S  0.05739163  0.19351456  0.11929245    -0.06500
C2656       C  0.01616208  0.16182117  0.12371810    -0.10000
C2657       C  0.02184546  0.13597978  0.12758951    -0.26600
S2658       S  0.13861869  0.10501306  0.13101756    -0.03800
C2659       C  0.17897888  0.13633794  0.12637784    -0.17200
C2660       C  0.17360908  0.16402930  0.12297313    -0.15200
H2661       H  0.13881789  0.20513126  0.11777080     0.20100
H2662       H  0.05755741  0.09564959  0.13309088     0.16200
H2663       H  0.99921289  0.11366922  0.13063909     0.18700
H2664       H  0.19527222  0.18573695  0.11973623     0.12000
C2665       C  0.56171872  0.12767864  0.12259429     0.15900
C2666       C  0.59313300  0.12364909  0.12504152    -0.33100
C2667       C  0.63077706  0.14624259  0.12227488     0.20300
C2668       C  0.63723446  0.17202914  0.11729231     0.02500
C2669       C  0.60569417  0.17642543  0.11486463    -0.22800
C2670       C  0.56771640  0.15350161  0.11763267     0.11700
S2671       S  0.51400770  0.10234127  0.12533968    -0.06500
C2672       C  0.50137808  0.12672513  0.11978553    -0.10000
C2673       C  0.53301772  0.15314887  0.11599078    -0.26600
S2674       S  0.68543651  0.19593098  0.11455839    -0.03800
C2675       C  0.69667774  0.17096764  0.12024317    -0.17200
C2676       C  0.66453899  0.14553408  0.12398061    -0.15200
H2677       H  0.58836933  0.10351874  0.12892551     0.20100
H2678       H  0.61045752  0.19652699  0.11097812     0.16200
H2679       H  0.53090602  0.17150954  0.11231799     0.18700
H2680       H  0.66561749  0.12691362  0.12771149     0.12000
C2681       C  0.43012410  0.06425176  0.07727075     0.15900
C2682       C  0.43511879  0.08839421  0.08251343    -0.33100
C2683       C  0.40416260  0.07399753  0.08695341     0.20300
C2684       C  0.36969351  0.03722597  0.08621083     0.02500
C2685       C  0.36480953  0.01294075  0.08098078    -0.22800
C2686       C  0.39581962  0.02733122  0.07653143     0.11700
S2687       S  0.46397005  0.07675480  0.07132755    -0.06500
C2688       C  0.43162578  0.03181925  0.06775301    -0.10000
C2689       C  0.39657204  0.00841882  0.07108801    -0.26600
S2690       S  0.33560474  0.02528380  0.09212535    -0.03800
C2691       C  0.36834517  0.07017717  0.09566774    -0.17200
C2692       C  0.40361738  0.09300625  0.09237217    -0.15200
H2693       H  0.46193072  0.11720236  0.08309699     0.20100
H2694       H  0.33797340  0.98416797  0.08039587     0.16200
H2695       H  0.37282919  0.97933098  0.06959340     0.18700
H2696       H  0.42770195  0.12189123  0.09387730     0.12000
C2697       C  0.35666104  0.16496657  0.17138772     0.15900
C2698       C  0.37019492  0.17915800  0.16527992    -0.33100
C2699       C  0.34258578  0.16241504  0.16031379     0.20300
C2700       C  0.30343162  0.13255595  0.16135928     0.02500
C2701       C  0.28998772  0.11824186  0.16745316    -0.22800
C2702       C  0.31744228  0.13523045  0.17242297     0.11700
S2703       S  0.38474322  0.18273103  0.17810043    -0.06500
C2704       C  0.34302932  0.15007958  0.18235539    -0.10000
C2705       C  0.30953224  0.12635842  0.17868918    -0.26600
S2706       S  0.27498956  0.11504509  0.15469348    -0.03800
C2707       C  0.31625925  0.14831592  0.15042623    -0.17200
C2708       C  0.35005791  0.17181292  0.15405135    -0.15200
H2709       H  0.40076892  0.20244046  0.16444189     0.20100
H2710       H  0.25939528  0.09500225  0.16828922     0.16200
H2711       H  0.28043440  0.10477638  0.18052618     0.18700
H2712       H  0.37907166  0.19335109  0.15218074     0.12000
C2713       C  0.59994880  0.15954246  0.20598261     0.15900
C2714       C  0.57408380  0.17232703  0.20367973    -0.33100
C2715       C  0.53735896  0.15838417  0.20676321     0.20300
C2716       C  0.52707675  0.13293346  0.21191121     0.02500
C2717       C  0.55296061  0.12039871  0.21423499    -0.22800
C2718       C  0.58956003  0.13429271  0.21115493     0.11700
S2719       S  0.64562956  0.17267768  0.20288001    -0.06500
C2720       C  0.65089094  0.14410493  0.20865052    -0.10000
C2721       C  0.61867055  0.12540603  0.21272231    -0.26600
S2722       S  0.48162451  0.11935439  0.21504327    -0.03800
C2723       C  0.47607880  0.14834980  0.20938203    -0.17200
C2724       C  0.50810267  0.16743806  0.20527489    -0.15200
H2725       H  0.58220729  0.19219448  0.19966182     0.20100
H2726       H  0.54490115  0.10066329  0.21827184     0.16200
H2727       H  0.61661150  0.10628569  0.21661465     0.18700
H2728       H  0.51011011  0.18717193  0.20148569     0.12000
C2729       C  0.02976134  0.13837656  0.21574740     0.15900
C2730       C  0.06167004  0.13415407  0.21797247    -0.33100
C2731       C  0.09875617  0.15626874  0.21494316     0.20300
C2732       C  0.10401968  0.18171596  0.20996119     0.02500
C2733       C  0.07226394  0.18620455  0.20777611    -0.22800
C2734       C  0.03516975  0.16384814  0.21076520     0.11700
S2735       S  0.98193431  0.11328106  0.21861652    -0.06500
C2736       C  0.96917826  0.13729389  0.21300699    -0.10000
C2737       C  0.00065787  0.16340065  0.20918783    -0.26600
S2738       S  0.15072972  0.20436408  0.20672042    -0.03800
C2739       C  0.16327593  0.17885964  0.21207725    -0.17200
C2740       C  0.13275895  0.15475627  0.21621167    -0.15200
H2741       H  0.05761148  0.11400014  0.22181697     0.20100
H2742       H  0.07608899  0.20568869  0.20383946     0.16200
H2743       H  0.99838339  0.18104454  0.20540587     0.18700
H2744       H  0.13487733  0.13599949  0.21981448     0.12000
C2745       C  0.80969209  0.92444806  0.12266402     0.15900
C2746       C  0.79431022  0.88521913  0.12049589    -0.33100
C2747       C  0.80943533  0.86237187  0.12317785     0.20300
C2748       C  0.83832057  0.87776283  0.12787726     0.02500
C2749       C  0.85374251  0.91716843  0.13006168    -0.22800
C2750       C  0.83889290  0.94029676  0.12731530     0.11700
S2751       S  0.79607137  0.95688764  0.11977285    -0.06500
C2752       C  0.83042944  0.99292361  0.12480113    -0.10000
C2753       C  0.85098038  0.97979138  0.12858659    -0.26600
S2754       S  0.85301058  0.84516208  0.13044751    -0.03800
C2755       C  0.82028472  0.81068187  0.12506217    -0.17200
C2756       C  0.79898943  0.82399975  0.12153726    -0.15200
H2757       H  0.77191568  0.87322560  0.11680051     0.20100
H2758       H  0.87666950  0.92939797  0.13367242     0.16200
H2759       H  0.87413060  0.99828532  0.13193247     0.18700
H2760       H  0.77727374  0.80668006  0.11792873     0.12000
C2761       C  0.81268356  0.42407215  0.11634877     0.15900
C2762       C  0.80952825  0.38825990  0.11413556    -0.33100
C2763       C  0.83274619  0.37430179  0.11716835     0.20300
C2764       C  0.85804535  0.39515180  0.12213431     0.02500
C2765       C  0.86136747  0.43086095  0.12429632    -0.22800
C2766       C  0.83804303  0.44454011  0.12132291     0.11700
S2767       S  0.78695563  0.44640008  0.11346633    -0.06500
C2768       C  0.81062938  0.48336805  0.11908189    -0.10000
C2769       C  0.83691924  0.47819304  0.12290083    -0.26600
S2770       S  0.88243144  0.37280726  0.12538619    -0.03800
C2771       C  0.85827177  0.33450522  0.12003687    -0.17200
C2772       C  0.83295311  0.33950894  0.11591338    -0.15200
H2773       H  0.78956516  0.37178365  0.11028722     0.20100
H2774       H  0.88089341  0.44703912  0.12820565     0.16200
H2775       H  0.85469797  0.49830123  0.12665521     0.18700
H2776       H  0.81471975  0.31822138  0.11231737     0.12000
C2777       C  0.04002863  0.85793389  0.12849640     0.15900
C2778       C  0.07126269  0.89497535  0.13064183    -0.33100
C2779       C  0.10579156  0.91480075  0.12686861     0.20300
C2780       C  0.10907734  0.89824102  0.12125903     0.02500
C2781       C  0.07817579  0.86128449  0.11915709    -0.22800
C2782       C  0.04370850  0.84178898  0.12287654     0.11700
S2783       S  0.99470961  0.82955532  0.13215626    -0.06500
C2784       C  0.98065142  0.79598456  0.12598780    -0.10000
C2785       C  0.01008477  0.80647997  0.12143811    -0.26600
S2786       S  0.15255252  0.92682944  0.11726210    -0.03800
C2787       C  0.16701343  0.96187065  0.12318762    -0.17200
C2788       C  0.13910649  0.95144974  0.12801377    -0.15200
H2789       H  0.06853834  0.90802402  0.13499802     0.20100
H2790       H  0.08063267  0.84853565  0.11474772     0.16200
H2791       H  0.00676578  0.78955656  0.11718422     0.18700
H2792       H  0.14281215  0.96982061  0.13209820     0.12000
C2793       C  0.55477034  0.34201816  0.11759761     0.15900
C2794       C  0.58977533  0.37399055  0.11506248    -0.33100
C2795       C  0.60541823  0.41140579  0.11802593     0.20300
C2796       C  0.58680231  0.41663785  0.12323195     0.02500
C2797       C  0.55206191  0.38481930  0.12575736    -0.22800
C2798       C  0.53671756  0.34752023  0.12284965     0.11700
S2799       S  0.53037748  0.29430400  0.11469717    -0.06500
C2800       C  0.49586670  0.28182014  0.12067428    -0.10000
C2801       C  0.50321612  0.31318310  0.12465903    -0.26600
S2802       S  0.61019720  0.46371579  0.12624348    -0.03800
C2803       C  0.64590814  0.47690814  0.12046760    -0.17200
C2804       C  0.63957894  0.44607794  0.11640472    -0.15200
H2805       H  0.60418631  0.36987468  0.11098526     0.20100
H2806       H  0.53770666  0.38892377  0.12984427     0.16200
H2807       H  0.48447005  0.31123667  0.12859511     0.18700
H2808       H  0.65927030  0.44866777  0.11257665     0.12000
C2809       C  0.63372212  0.54679614  0.07873863     0.15900
C2810       C  0.65458421  0.54189740  0.08376335    -0.33100
C2811       C  0.67360063  0.57329620  0.08810855     0.20300
C2812       C  0.67180001  0.60808685  0.08750624     0.02500
C2813       C  0.65062503  0.61292185  0.08247844    -0.22800
C2814       C  0.63166918  0.58145103  0.07809655     0.11700
S2815       S  0.61005178  0.51254017  0.07290396    -0.06500
C2816       C  0.59696593  0.54496048  0.06947312    -0.10000
C2817       C  0.61039168  0.58053807  0.07278740    -0.26600
S2818       S  0.69720357  0.64258709  0.09330885    -0.03800
C2819       C  0.71027432  0.60968926  0.09659389    -0.17200
C2820       C  0.69551953  0.57402469  0.09327823    -0.15200
H2821       H  0.65620963  0.51482493  0.08423494     0.20100
H2822       H  0.64924087  0.64010353  0.08198005     0.16200
H2823       H  0.60562661  0.60470563  0.07132551     0.18700
H2824       H  0.70040541  0.54969894  0.09459546     0.12000
C2825       C  0.04690416  0.89139253  0.21576658     0.15900
C2826       C  0.07052990  0.93101705  0.21788227    -0.33100
C2827       C  0.10618197  0.95570545  0.21460693     0.20300
C2828       C  0.11730473  0.94135123  0.20945597     0.02500
C2829       C  0.09385302  0.90203818  0.20735994    -0.22800
C2830       C  0.05862567  0.87746501  0.21063778     0.11700
S2831       S  0.00259995  0.85639780  0.21901886    -0.06500
C2832       C  0.00036021  0.82280709  0.21342560    -0.10000
C2833       C  0.03222176  0.83831857  0.20927938    -0.26600
S2834       S  0.16098919  0.97501215  0.20605609    -0.03800
C2835       C  0.16507840  0.00940208  0.21162090    -0.17200
C2836       C  0.13372393  0.99506436  0.21590089    -0.15200
H2837       H  0.06158711  0.94202680  0.22189496     0.20100
H2838       H  0.10278546  0.89102529  0.20334355     0.16200
H2839       H  0.03577666  0.82191867  0.20543249     0.18700
H2840       H  0.13124397  0.01232191  0.21971464     0.12000
C2841       C  0.55405885  0.38758929  0.21230671     0.15900
C2842       C  0.58615528  0.42348192  0.21443299    -0.33100
C2843       C  0.62058690  0.44142459  0.21071359     0.20300
C2844       C  0.62342506  0.42486012  0.20508302     0.02500
C2845       C  0.59101797  0.38868159  0.20292393    -0.22800
C2846       C  0.55631804  0.37049595  0.20668485     0.11700
S2847       S  0.51011484  0.36121572  0.21627017    -0.06500
C2848       C  0.49405865  0.32640330  0.21030735    -0.10000
C2849       C  0.52173914  0.33519148  0.20550065    -0.26600
S2850       S  0.66852408  0.45261786  0.20131078    -0.03800
C2851       C  0.68307472  0.48666060  0.20741698    -0.17200
C2852       C  0.65438695  0.47634707  0.21207174    -0.15200
H2853       H  0.58442412  0.43686480  0.21882301     0.20100
H2854       H  0.59275210  0.37531417  0.19853566     0.16200
H2855       H  0.51695646  0.31660124  0.20140122     0.18700
H2856       H  0.65780745  0.49388039  0.21625630     0.12000
C2857       C  0.78972656  0.89742401  0.21034153     0.15900
C2858       C  0.78390979  0.86085835  0.20808883    -0.33100
C2859       C  0.80426849  0.84416647  0.21115919     0.20300
C2860       C  0.82912130  0.86284108  0.21627656     0.02500
C2861       C  0.83469387  0.89933545  0.21856584    -0.22800
C2862       C  0.81451606  0.91618766  0.21546424     0.11700
S2863       S  0.76916752  0.92324712  0.20706151    -0.06500
C2864       C  0.79423258  0.95988179  0.21264276    -0.10000
C2865       C  0.81715112  0.95210215  0.21682762    -0.26600
S2866       S  0.85206773  0.83817302  0.21920281    -0.03800
C2867       C  0.82813498  0.80248186  0.21342823    -0.17200
C2868       C  0.80345588  0.80951005  0.20952159    -0.15200
H2869       H  0.76488171  0.84638559  0.20404949     0.20100
H2870       H  0.85436852  0.91423857  0.22252155     0.16200
H2871       H  0.83557989  0.97209331  0.22054568     0.18700
H2872       H  0.78623503  0.79054453  0.20562428     0.12000
C2873       C  0.82848951  0.36374531  0.20378292     0.15900
C2874       C  0.82163496  0.39451484  0.20175935    -0.33100
C2875       C  0.83767473  0.42958013  0.20542605     0.20300
C2876       C  0.85969747  0.43381996  0.21083549     0.02500
C2877       C  0.86689158  0.40335936  0.21281060    -0.22800
C2878       C  0.85071701  0.36836320  0.20917756     0.11700
S2879       S  0.80983936  0.31782832  0.20025387    -0.06500
C2880       C  0.83194661  0.30470299  0.20616072    -0.10000
C2881       C  0.85307733  0.33494068  0.21052509    -0.26600
S2882       S  0.87532295  0.47770857  0.21477987    -0.03800
C2883       C  0.85206831  0.49093623  0.20909444    -0.17200
C2884       C  0.83334039  0.46239684  0.20438208    -0.15200
H2885       H  0.80396513  0.39099158  0.19758428     0.20100
H2886       H  0.88375407  0.40649429  0.21707065     0.16200
H2887       H  0.86836163  0.33219267  0.21462054     0.18700
H2888       H  0.81677265  0.46515256  0.20047360     0.12000
C2889       C  0.82558983  0.66303418  0.17124712     0.15900
C2890       C  0.83214454  0.68168693  0.16534957    -0.33100
C2891       C  0.84271176  0.66528098  0.16031936     0.20300
C2892       C  0.84615936  0.63149664  0.16110002     0.02500
C2893       C  0.83983896  0.61294346  0.16701856    -0.22800
C2894       C  0.82951505  0.62954192  0.17206736     0.11700
S2895       S  0.81379309  0.67922488  0.17795377    -0.06500
C2896       C  0.81447221  0.64070626  0.18196846    -0.10000
C2897       C  0.82302132  0.61646745  0.17821186    -0.26600
S2898       S  0.85635363  0.61463231  0.15429192    -0.03800
C2899       C  0.85620438  0.65367538  0.15034345    -0.17200
C2900       C  0.84897245  0.67844445  0.15419314    -0.15200
H2901       H  0.82908464  0.70785050  0.16470782     0.20100
H2902       H  0.84256982  0.58658487  0.16764939     0.16200
H2903       H  0.82589393  0.59159947  0.17992652     0.18700
H2904       H  0.84591458  0.70331251  0.15253354     0.12000
C2905       C  0.73767332  0.96622340  0.25437905     0.15900
C2906       C  0.76296887  0.98704722  0.24931788    -0.33100
C2907       C  0.74824193  0.00195438  0.24462523     0.20300
C2908       C  0.70999712  0.99654949  0.24495983     0.02500
C2909       C  0.68446855  0.97534887  0.25000969    -0.22800
C2910       C  0.69920098  0.96024454  0.25470838     0.11700
S2911       S  0.75041047  0.94630400  0.26054134    -0.06500
C2912       C  0.70322798  0.92902670  0.26363198    -0.10000
C2913       C  0.67919472  0.93880923  0.26000711    -0.26600
S2914       S  0.69828028  0.01778317  0.23882446    -0.03800
C2915       C  0.74529559  0.03379198  0.23574264    -0.17200
C2916       C  0.76851185  0.02304682  0.23935490    -0.15200
H2917       H  0.79295130  0.99153017  0.24905829     0.20100
H2918       H  0.65451281  0.97092690  0.25027209     0.16200
H2919       H  0.64877715  0.93070268  0.26118112     0.18700
H2920       H  0.79876737  0.03042841  0.23820365     0.12000
C2921       C  0.63873234  0.81917106  0.32834443     0.15900
C2922       C  0.63155396  0.83053728  0.33424645    -0.33100
C2923       C  0.66068406  0.84061874  0.33894011     0.20300
C2924       C  0.69540179  0.83933953  0.33783703     0.02500
C2925       C  0.70262130  0.82798554  0.33192679    -0.22800
C2926       C  0.67344153  0.81788697  0.32722815     0.11700
S2927       S  0.60801245  0.80783629  0.32194255    -0.06500
C2928       C  0.64252318  0.80178094  0.31766713    -0.10000
C2929       C  0.67556366  0.80746226  0.32113150    -0.26600
S2930       S  0.72557117  0.84991777  0.34429984    -0.03800
C2931       C  0.69071996  0.85552140  0.34856441    -0.17200
C2932       C  0.65808155  0.85039353  0.34504904    -0.15200
H2933       H  0.60441230  0.83143979  0.33514458     0.20100
H2934       H  0.72964381  0.82682925  0.33104148     0.16200
H2935       H  0.70089424  0.80622612  0.31920626     0.18700
H2936       H  0.63235650  0.85094389  0.34696114     0.12000
C2937       C  0.89939750  0.82783790  0.37242803     0.15900
C2938       C  0.93720813  0.83879066  0.36994713    -0.33100
C2939       C  0.95831311  0.82176017  0.37268649     0.20300
C2940       C  0.94191630  0.79442821  0.37758111     0.02500
C2941       C  0.90402846  0.78319227  0.38001061    -0.22800
C2942       C  0.88339219  0.80090441  0.37737913     0.11700
S2943       S  0.86978454  0.84620494  0.36992371    -0.06500
C2944       C  0.83563749  0.81765773  0.37565632    -0.10000
C2945       C  0.84689575  0.79508302  0.37928578    -0.26600
S2946       S  0.97264201  0.77876438  0.38053881    -0.03800
C2947       C  0.00861788  0.80988119  0.37522054    -0.17200
C2948       C  0.99667603  0.83063231  0.37126721    -0.15200
H2949       H  0.94999061  0.86036757  0.36615867     0.20100
H2950       H  0.89166379  0.76236901  0.38390429     0.16200
H2951       H  0.82931314  0.77539683  0.38308527     0.18700
H2952       H  0.01551086  0.85221763  0.36775771     0.12000
C2953       C  0.45743168  0.82383952  0.37433225     0.15900
C2954       C  0.43203337  0.83704151  0.37205126    -0.33100
C2955       C  0.40287233  0.83522192  0.37614869     0.20300
C2956       C  0.39902687  0.82070089  0.38224709     0.02500
C2957       C  0.42467710  0.80769215  0.38455147    -0.22800
C2958       C  0.45398343  0.80960540  0.38044410     0.11700
S2959       S  0.49522823  0.82494174  0.37010890    -0.06500
C2960       C  0.50729517  0.80670570  0.37666927    -0.10000
C2961       C  0.48249513  0.79939833  0.38181623    -0.26600
S2962       S  0.36040119  0.81908815  0.38635828    -0.03800
C2963       C  0.34932640  0.83811604  0.37978079    -0.17200
C2964       C  0.37472632  0.84568512  0.37472232    -0.15200
H2965       H  0.43488954  0.84824195  0.36728367     0.20100
H2966       H  0.42181660  0.79646921  0.38931705     0.16200
H2967       H  0.48607762  0.78876739  0.38636392     0.18700
H2968       H  0.37174118  0.85662898  0.37016439     0.12000
C2969       C  0.42841463  0.81623726  0.29412621     0.15900
C2970       C  0.39041004  0.80336426  0.29670653    -0.33100
C2971       C  0.36851217  0.82054775  0.29434053     0.20300
C2972       C  0.38441928  0.84987197  0.28971921     0.02500
C2973       C  0.42232203  0.86270797  0.28714747    -0.22800
C2974       C  0.44377179  0.84488373  0.28940006     0.11700
S2975       S  0.45919795  0.79859906  0.29627739    -0.06500
C2976       C  0.49299259  0.82967741  0.29068739    -0.10000
C2977       C  0.48071209  0.85251709  0.28735323    -0.26600
S2978       S  0.35315638  0.86601145  0.28724246    -0.03800
C2979       C  0.31731190  0.83193721  0.29230773    -0.17200
C2980       C  0.32984033  0.81013790  0.29588708    -0.15200
H2981       H  0.37817339  0.78041404  0.30030477     0.20100
H2982       H  0.43418246  0.88501467  0.28344874     0.16200
H2983       H  0.49795283  0.87377044  0.28369666     0.18700
H2984       H  0.31117872  0.78670103  0.29917187     0.12000
C2985       C  0.92021370  0.80559492  0.28293029     0.15900
C2986       C  0.89460288  0.81830555  0.28045653    -0.33100
C2987       C  0.86400978  0.81550478  0.28437258     0.20300
C2988       C  0.85905896  0.80014699  0.29043113     0.02500
C2989       C  0.88410952  0.78683064  0.29285333    -0.22800
C2990       C  0.91489239  0.79010754  0.28898315     0.11700
S2991       S  0.96111086  0.80971822  0.27916563    -0.06500
C2992       C  0.97127257  0.79062561  0.28583227    -0.10000
C2993       C  0.94379101  0.78103419  0.29065568    -0.26600
S2994       S  0.82130443  0.79988974  0.29454066    -0.03800
C2995       C  0.81156337  0.82073779  0.28806330    -0.17200
C2996       C  0.83664910  0.82742347  0.28295871    -0.15200
H2997       H  0.89898431  0.83075263  0.27575401     0.20100
H2998       H  0.88030437  0.77525622  0.29761118     0.16200
H2999       H  0.94591490  0.76988735  0.29524592     0.18700
H3000       H  0.83484000  0.83996747  0.27848339     0.12000
C3001       C  0.13681644  0.78683947  0.33876101     0.15900
C3002       C  0.14225439  0.77370248  0.33285815    -0.33100
C3003       C  0.15164079  0.79973326  0.32770294     0.20300
C3004       C  0.15464524  0.83683687  0.32838402     0.02500
C3005       C  0.14917209  0.84993242  0.33427801    -0.22800
C3006       C  0.14045535  0.82420253  0.33945443     0.11700
S3007       S  0.12825307  0.76101697  0.34566435    -0.06500
C3008       C  0.13037456  0.80125877  0.34958990    -0.10000
C3009       C  0.13656267  0.83256734  0.34563930    -0.26600
S3010       S  0.16515864  0.86361223  0.32155816    -0.03800
C3011       C  0.16619550  0.82474524  0.31772035    -0.17200
C3012       C  0.15853378  0.79269741  0.32159760    -0.15200
H3013       H  0.13997572  0.74474907  0.33233161     0.20100
H3014       H  0.15211009  0.87915813  0.33481951     0.16200
H3015       H  0.14052028  0.86093432  0.34724500     0.18700
H3016       H  0.15693010  0.76529620  0.32000482     0.12000
C3017       C  0.01657645  0.70562822  0.25377427     0.15900
C3018       C  0.99695107  0.68111237  0.24855696    -0.33100
C3019       C  0.97902665  0.69481063  0.24419446     0.20300
C3020       C  0.98059037  0.73119102  0.24501029     0.02500
C3021       C  0.00025716  0.75563873  0.25018731    -0.22800
C3022       C  0.01811909  0.74202132  0.25452599     0.11700
S3023       S  0.03989742  0.69464284  0.25967484    -0.06500
C3024       C  0.05176040  0.73963697  0.26316320    -0.10000
C3025       C  0.03821836  0.76160112  0.25986926    -0.26600
S3026       S  0.95672445  0.74249707  0.23931102    -0.03800
C3027       C  0.94431483  0.69773456  0.23572826    -0.17200
C3028       C  0.95827837  0.67542813  0.23884091    -0.15200
H3029       H  0.99556501  0.65261948  0.24794062     0.20100
H3030       H  0.00143024  0.78402645  0.25082333     0.16200
H3031       H  0.04259467  0.79038903  0.26133045     0.18700
H3032       H  0.95335347  0.64659445  0.23729371     0.12000
C3033       C  0.92932134  0.11343771  0.37852194     0.15900
C3034       C  0.89104292  0.08396714  0.38039439    -0.33100
C3035       C  0.87119906  0.04950078  0.37667140     0.20300
C3036       C  0.88841066  0.04442430  0.37128014     0.02500
C3037       C  0.92666521  0.07429950  0.36934224    -0.22800
C3038       C  0.94672867  0.10882599  0.37311134     0.11700
S3039       S  0.95888674  0.15623228  0.38264398    -0.06500
C3040       C  0.99550161  0.16839545  0.37705208    -0.10000
C3041       C  0.98471274  0.14051773  0.37221226    -0.26600
S3042       S  0.85980587  0.99904525  0.36766017    -0.03800
C3043       C  0.82446684  0.98698128  0.37350241    -0.17200
C3044       C  0.83461841  0.01701116  0.37792997    -0.15200
H3045       H  0.87762522  0.08736086  0.38465872     0.20100
H3046       H  0.94052256  0.07043046  0.36517153     0.16200
H3047       H  0.00401600  0.14276743  0.36834481     0.18700
H3048       H  0.81672581  0.01470606  0.38200831     0.12000
C3049       C  0.37705590  0.55187896  0.38180462     0.15900
C3050       C  0.40830446  0.58780309  0.38419653    -0.33100
C3051       C  0.44476468  0.60547446  0.38094132     0.20300
C3052       C  0.44986924  0.58811505  0.37555991     0.02500
C3053       C  0.41853584  0.55254570  0.37312767    -0.22800
C3054       C  0.38215783  0.53496653  0.37637100     0.11700
S3055       S  0.33096259  0.52480795  0.38517118    -0.06500
C3056       C  0.31848870  0.49058583  0.37914911    -0.10000
C3057       C  0.34862064  0.49998903  0.37480173    -0.26600
S3058       S  0.49634624  0.61372800  0.37233286    -0.03800
C3059       C  0.50903624  0.64872670  0.37823243    -0.17200
C3060       C  0.47866951  0.64041796  0.38249622    -0.15200
H3061       H  0.40447377  0.60121531  0.38842705     0.20100
H3062       H  0.42241666  0.53901645  0.36891381     0.16200
H3063       H  0.34644450  0.48170591  0.37078172     0.18700
H3064       H  0.48113674  0.65908559  0.38647576     0.12000
C3065       C  0.15885994  0.04381780  0.37316972     0.15900
C3066       C  0.14484123  0.06903076  0.37096928    -0.33100
C3067       C  0.16489284  0.10899648  0.37302568     0.20300
C3068       C  0.19768196  0.12296887  0.37701995     0.02500
C3069       C  0.21157335  0.09786008  0.37921630    -0.22800
C3070       C  0.19127605  0.05794197  0.37724265     0.11700
S3071       S  0.13879625  0.99450192  0.37126885    -0.06500
C3072       C  0.17424314  0.99278702  0.37605038    -0.10000
C3073       C  0.20005136  0.02881503  0.37896077    -0.26600
S3074       S  0.21727883  0.17144312  0.37921219    -0.03800
C3075       C  0.18039254  0.17330624  0.37486248    -0.17200
C3076       C  0.15482631  0.13794073  0.37172416    -0.15200
H3077       H  0.11917159  0.05784491  0.36786164     0.20100
H3078       H  0.23682399  0.10888660  0.38241056     0.16200
H3079       H  0.22426383  0.03360737  0.38209096     0.18700
H3080       H  0.12936056  0.13311410  0.36890666     0.12000
C3081       C  0.18278382  0.55796135  0.38378538     0.15900
C3082       C  0.19842551  0.59764576  0.38578819    -0.33100
C3083       C  0.19045461  0.62275293  0.38202769     0.20300
C3084       C  0.16774480  0.60864450  0.37656517     0.02500
C3085       C  0.15157614  0.56899851  0.37463890    -0.22800
C3086       C  0.15970208  0.54410566  0.37835740     0.11700
S3087       S  0.19106336  0.52338358  0.38741311    -0.06500
C3088       C  0.16297744  0.49006083  0.38155141    -0.10000
C3089       C  0.14795243  0.50512755  0.37707733    -0.26600
S3090       S  0.16160772  0.64309592  0.37256056    -0.03800
C3091       C  0.18947063  0.67726463  0.37832544    -0.17200
C3092       C  0.20305797  0.66241334  0.38309177    -0.15200
H3093       H  0.21648267  0.60857789  0.39001913     0.20100
H3094       H  0.13389041  0.55817988  0.37036789     0.16200
H3095       H  0.13057611  0.48891237  0.37298433     0.18700
H3096       H  0.22041392  0.67934512  0.38713705     0.12000
C3097       C  0.87928063  0.05764524  0.29077603     0.15900
C3098       C  0.90968730  0.09412867  0.29309166    -0.33100
C3099       C  0.94712674  0.11060075  0.29019996     0.20300
C3100       C  0.95418528  0.09172311  0.28521658     0.02500
C3101       C  0.92362443  0.05515220  0.28287767    -0.22800
C3102       C  0.88602293  0.03864255  0.28577311     0.11700
S3103       S  0.83219245  0.03267466  0.29376700    -0.06500
C3104       C  0.82112307  0.99609896  0.28820884    -0.10000
C3105       C  0.85257010  0.00319675  0.28425241    -0.26600
S3106       S  0.00198062  0.11690676  0.28239769    -0.03800
C3107       C  0.01235242  0.15309190  0.28801861    -0.17200
C3108       C  0.98028483  0.14574140  0.29182164    -0.15200
H3109       H  0.90444156  0.10894982  0.29700168     0.20100
H3110       H  0.92893422  0.04020459  0.27899545     0.16200
H3111       H  0.85124006  0.98324735  0.28055226     0.18700
H3112       H  0.98109670  0.16521956  0.29556323     0.12000
C3113       C  0.39819982  0.53322992  0.28829708     0.15900
C3114       C  0.43479630  0.56335491  0.28598567    -0.33100
C3115       C  0.45375015  0.59946124  0.28929580     0.20300
C3116       C  0.43738751  0.60542351  0.29471793     0.02500
C3117       C  0.40053991  0.57518443  0.29703333    -0.22800
C3118       C  0.38126749  0.53903001  0.29366982     0.11700
S3119       S  0.37032722  0.48792076  0.28479826    -0.06500
C3120       C  0.33479128  0.47659083  0.29054485    -0.10000
C3121       C  0.34470330  0.50641387  0.29500482    -0.26600
S3122       S  0.46565846  0.65168730  0.29802418    -0.03800
C3123       C  0.49956596  0.66289377  0.29199256    -0.17200
C3124       C  0.48917472  0.63225001  0.28769811    -0.15200
H3125       H  0.44777408  0.55896716  0.28174944     0.20100
H3126       H  0.38734233  0.57974766  0.30122521     0.16200
H3127       H  0.32582765  0.50470900  0.29890360     0.18700
H3128       H  0.50662001  0.63386507  0.28359701     0.12000
C3129       C  0.14531802  0.02290276  0.28327679     0.15900
C3130       C  0.14063713  0.05478737  0.28119584    -0.33100
C3131       C  0.16068221  0.09079843  0.28458275     0.20300
C3132       C  0.18471584  0.09509105  0.28973607     0.02500
C3133       C  0.18966913  0.06349766  0.29176567    -0.22800
C3134       C  0.16921204  0.02747108  0.28845627     0.11700
S3135       S  0.12220164  0.97586589  0.28007446    -0.06500
C3136       C  0.14449199  0.96238755  0.28588490    -0.10000
C3137       C  0.16895573  0.99311772  0.28994799    -0.26600
S3138       S  0.20511592  0.14029196  0.29340002    -0.03800
C3139       C  0.18072302  0.15363364  0.28797548    -0.17200
C3140       C  0.15840042  0.12450914  0.28352903    -0.15200
H3141       H  0.12156884  0.05143320  0.27721678     0.20100
H3142       H  0.20790980  0.06654372  0.29584751     0.16200
H3143       H  0.18536426  0.99035569  0.29388390     0.18700
H3144       H  0.14053361  0.12741262  0.27984467     0.12000
C3145       C  0.17055184  0.59513793  0.29455771     0.15900
C3146       C  0.17985831  0.56731074  0.29721441    -0.33100
C3147       C  0.17083766  0.53306811  0.29365001     0.20300
C3148       C  0.15342834  0.52718319  0.28772751     0.02500
C3149       C  0.14470298  0.55506670  0.28505923    -0.22800
C3150       C  0.15360743  0.58903059  0.28860036     0.11700
S3151       S  0.17782993  0.63807230  0.29811016    -0.06500
C3152       C  0.15790076  0.64772560  0.29147269    -0.10000
C3153       C  0.14656159  0.61902680  0.28679491    -0.26600
S3154       S  0.14360216  0.48391512  0.28416013    -0.03800
C3155       C  0.16329938  0.47302207  0.29067161    -0.17200
C3156       C  0.17689336  0.50200276  0.29537149    -0.15200
H3157       H  0.19314202  0.57195463  0.30186207     0.20100
H3158       H  0.13113065  0.55026064  0.28042984     0.16200
H3159       H  0.13360104  0.61990862  0.28230362     0.18700
H3160       H  0.19014944  0.50033984  0.29978494     0.12000
C3161       C  0.19664047  0.32998448  0.33898530     0.15900
C3162       C  0.20927573  0.34845768  0.33305793    -0.33100
C3163       C  0.18143859  0.33426466  0.32808050     0.20300
C3164       C  0.14283297  0.30287649  0.32897485     0.02500
C3165       C  0.13027519  0.28428658  0.33488846    -0.22800
C3166       C  0.15802907  0.29859409  0.33987186     0.11700
S3167       S  0.22493329  0.34465560  0.34570698    -0.06500
C3168       C  0.18421122  0.30849711  0.34981896    -0.10000
C3169       C  0.15083569  0.28584507  0.34605201    -0.26600
S3170       S  0.11392447  0.28915124  0.32232833    -0.03800
C3171       C  0.15427481  0.32581707  0.31823285    -0.17200
C3172       C  0.18813615  0.34778268  0.32193698    -0.15200
H3173       H  0.23938016  0.37311131  0.33237458     0.20100
H3174       H  0.10005760  0.25987227  0.33558378     0.16200
H3175       H  0.12204046  0.26302694  0.34780773     0.18700
H3176       H  0.21663030  0.37115253  0.32017544     0.12000
C3177       C  0.28653988  0.26079897  0.24589836     0.15900
C3178       C  0.29314714  0.28391433  0.25136178    -0.33100
C3179       C  0.26135529  0.27148340  0.25564285     0.20300
C3180       C  0.22472562  0.23750034  0.25451617     0.02500
C3181       C  0.21811329  0.21449416  0.24905795    -0.22800
C3182       C  0.24983600  0.22689029  0.24478919     0.11700
S3183       S  0.32124981  0.27050729  0.24015978    -0.06500
C3184       C  0.28605777  0.22821113  0.23623924    -0.10000
C3185       C  0.24931722  0.20812534  0.23925819    -0.26600
S3186       S  0.19001111  0.22707413  0.26025484    -0.03800
C3187       C  0.22489182  0.26911565  0.26424800    -0.17200
C3188       C  0.26165866  0.28988460  0.26122527    -0.15200
H3189       H  0.32182210  0.31035836  0.25224078     0.20100
H3190       H  0.18948318  0.18796245  0.24818905     0.16200
H3191       H  0.22365681  0.18105743  0.23752515     0.18700
H3192       H  0.28719511  0.31683254  0.26301642     0.12000
C3193       C  0.10765066  0.40812727  0.41328191     0.15900
C3194       C  0.11107993  0.43402596  0.41817921    -0.33100
C3195       C  0.07882009  0.42128075  0.42234973     0.20300
C3196       C  0.04443133  0.38441169  0.42166981     0.02500
C3197       C  0.04091846  0.35843612  0.41673916    -0.22800
C3198       C  0.07341458  0.37113802  0.41257367     0.11700
S3199       S  0.14363758  0.41841878  0.40776685    -0.06500
C3200       C  0.11252093  0.37231228  0.40441296    -0.10000
C3201       C  0.07603906  0.35035195  0.40748639    -0.26600
S3202       S  0.00893674  0.37469423  0.42730748    -0.03800
C3203       C  0.04094841  0.42076928  0.43063060    -0.17200
C3204       C  0.07699963  0.44218250  0.42744898    -0.15200
H3205       H  0.13786977  0.46288227  0.41872992     0.20100
H3206       H  0.01414958  0.32956881  0.41619146     0.16200
H3207       H  0.05254149  0.32103782  0.40603327     0.18700
H3208       H  0.10089121  0.47149403  0.42882376     0.12000
C3209       C  0.98010114  0.48093337  0.50455274     0.15900
C3210       C  0.96021969  0.47028813  0.49872747    -0.33100
C3211       C  0.97772138  0.49681854  0.49367192     0.20300
C3212       C  0.01366433  0.53224155  0.49437214     0.02500
C3213       C  0.03349097  0.54303653  0.50022496    -0.22800
C3214       C  0.01580393  0.51658006  0.50530514     0.11700
S3215       S  0.96290241  0.45317973  0.51124872    -0.06500
C3216       C  0.00384515  0.49015571  0.51519955    -0.10000
C3217       C  0.02970994  0.52207953  0.51142057    -0.26600
S3218       S  0.03124061  0.55888973  0.48754262    -0.03800
C3219       C  0.98960187  0.52201857  0.48368503    -0.17200
C3220       C  0.96357974  0.49098090  0.48758835    -0.15200
H3221       H  0.93230140  0.44245863  0.49815999     0.20100
H3222       H  0.06155284  0.57071648  0.50078301     0.16200
H3223       H  0.05632314  0.54846916  0.51309549     0.18700
H3224       H  0.93695704  0.46431023  0.48598915     0.12000
C3225       C  0.25814917  0.77865100  0.45590227     0.15900
C3226       C  0.22144777  0.74795987  0.45806443    -0.33100
C3227       C  0.20624278  0.71041959  0.45526080     0.20300
C3228       C  0.22625258  0.70347925  0.45044677     0.02500
C3229       C  0.26341054  0.73431869  0.44829787    -0.22800
C3230       C  0.27891352  0.77207018  0.45116290     0.11700
S3231       S  0.28134353  0.82590181  0.45883588    -0.06500
C3232       C  0.32009790  0.83738471  0.45369926    -0.10000
C3233       C  0.31475315  0.80588603  0.44986687    -0.26600
S3234       S  0.20148208  0.65548333  0.44761599    -0.03800
C3235       C  0.16441673  0.64493080  0.45308612    -0.17200
C3236       C  0.17114442  0.67713268  0.45681080    -0.15200
H3237       H  0.20546216  0.75308783  0.46180457     0.20100
H3238       H  0.27949371  0.72913157  0.44458365     0.16200
H3239       H  0.33616660  0.80743238  0.44642454     0.18700
H3240       H  0.15108771  0.67641024  0.46044208     0.12000
C3241       C  0.70911286  0.22437264  0.46273544     0.15900
C3242       C  0.73787629  0.26395322  0.46431317    -0.33100
C3243       C  0.77568343  0.28051954  0.46141612     0.20300
C3244       C  0.78441090  0.25843278  0.45721709     0.02500
C3245       C  0.75602511  0.21900036  0.45572149    -0.22800
C3246       C  0.71830344  0.20272823  0.45852678     0.11700
S3247       S  0.66063085  0.19894053  0.46538615    -0.06500
C3248       C  0.65289686  0.15904598  0.46070904    -0.10000
C3249       C  0.68647000  0.16554325  0.45736351    -0.26600
S3250       S  0.83077399  0.28378509  0.45393555    -0.03800
C3251       C  0.83895442  0.32507372  0.45820727    -0.17200
C3252       C  0.80719071  0.31894889  0.46205049    -0.15200
H3253       H  0.73083313  0.28131501  0.46752976     0.20100
H3254       H  0.76275416  0.20199307  0.45238022     0.16200
H3255       H  0.68735089  0.14440756  0.45410531     0.18700
H3256       H  0.80678937  0.34160938  0.46500397     0.12000
C3257       C  0.35352553  0.96015724  0.42100535     0.15900
C3258       C  0.33136207  0.96241641  0.41590838    -0.33100
C3259       C  0.31398817  0.92990320  0.41169965     0.20300
C3260       C  0.31881756  0.89693782  0.41252020     0.02500
C3261       C  0.34080614  0.89469869  0.41759539    -0.22800
C3262       C  0.35786168  0.92689847  0.42180392     0.11700
S3263       S  0.37671615  0.99587603  0.42671313    -0.06500
C3264       C  0.39215283  0.96541023  0.43019544    -0.10000
C3265       C  0.37980846  0.92967819  0.42704628    -0.26600
S3266       S  0.29610954  0.86078072  0.40692614    -0.03800
C3267       C  0.27939530  0.88998015  0.40340268    -0.17200
C3268       C  0.29117822  0.92602280  0.40646681    -0.15200
H3269       H  0.32771279  0.98822892  0.41526547     0.20100
H3270       H  0.34439985  0.86885528  0.41824599     0.16200
H3271       H  0.38626624  0.90666736  0.42854177     0.18700
H3272       H  0.28380135  0.94828948  0.40491854     0.12000
C3273       C  0.49755085  0.96854300  0.50451551     0.15900
C3274       C  0.50431896  0.95964391  0.49840437    -0.33100
C3275       C  0.51733599  0.99002301  0.49387087     0.20300
C3276       C  0.52317501  0.02757516  0.49530970     0.02500
C3277       C  0.51701794  0.03669633  0.50144799    -0.22800
C3278       C  0.50400305  0.00627890  0.50598623     0.11700
S3279       S  0.48189868  0.93589526  0.51071717    -0.06500
C3280       C  0.48437227  0.97364384  0.51536559    -0.10000
C3281       C  0.49643570  0.00933987  0.51218957    -0.26600
S3282       S  0.53510802  0.05885234  0.48897249    -0.03800
C3283       C  0.53226718  0.02083863  0.48434618    -0.17200
C3284       C  0.52323241  0.98625623  0.48762693    -0.15200
H3285       H  0.49918420  0.93018411  0.49721177     0.20100
H3286       H  0.52142861  0.06593180  0.50261051     0.16200
H3287       H  0.50072856  0.03660923  0.51435390     0.18700
H3288       H  0.51822088  0.95867014  0.48548228     0.12000
C3289       C  0.21118552  0.72788857  0.54486605     0.15900
C3290       C  0.24116481  0.76607848  0.54661063    -0.33100
C3291       C  0.27705098  0.78292417  0.54324391     0.20300
C3292       C  0.28313020  0.76304828  0.53831118     0.02500
C3293       C  0.25290699  0.72468839  0.53653202    -0.22800
C3294       C  0.21688650  0.70766690  0.53993867     0.11700
S3295       S  0.16603856  0.70215116  0.54852900    -0.06500
C3296       C  0.15443124  0.66348727  0.54338022    -0.10000
C3297       C  0.18418098  0.67059127  0.53903914    -0.26600
S3298       S  0.32971954  0.78901427  0.53497537    -0.03800
C3299       C  0.34090982  0.82659725  0.54036858    -0.17200
C3300       C  0.30980833  0.81915909  0.54442228    -0.15200
H3301       H  0.23690109  0.78182497  0.55048518     0.20100
H3302       H  0.25738827  0.70868375  0.53272282     0.16200
H3303       H  0.18219233  0.64955557  0.53548142     0.18700
H3304       H  0.31126995  0.83901773  0.54815088     0.12000
C3305       C  0.78266676  0.27272725  0.54156087     0.15900
C3306       C  0.75782283  0.23401154  0.53926549    -0.33100
C3307       C  0.72618940  0.20746128  0.54310764     0.20300
C3308       C  0.71937904  0.21906527  0.54894869     0.02500
C3309       C  0.74426730  0.25789428  0.55124034    -0.22800
C3310       C  0.77614087  0.28444025  0.54741629     0.11700
S3311       S  0.82298720  0.30867486  0.53765897    -0.06500
C3312       C  0.83163507  0.34004986  0.54399186    -0.10000
C3313       C  0.80418197  0.32326625  0.54884674    -0.26600
S3314       S  0.67881509  0.18265709  0.55282520    -0.03800
C3315       C  0.67102533  0.15138530  0.54652021    -0.17200
C3316       C  0.69871100  0.16859148  0.54170002    -0.15200
H3317       H  0.76305447  0.22494496  0.53469721     0.20100
H3318       H  0.73905221  0.26696162  0.55580644     0.16200
H3319       H  0.80507611  0.33830307  0.55320414     0.18700
H3320       H  0.69817436  0.15379265  0.53733240     0.12000
C3321       C  0.74838514  0.53447914  0.45436843     0.15900
C3322       C  0.78538842  0.54065990  0.45222628    -0.33100
C3323       C  0.80476617  0.52495557  0.45586256     0.20300
C3324       C  0.78848899  0.50454368  0.46143792     0.02500
C3325       C  0.75179516  0.49902398  0.46364253    -0.22800
C3326       C  0.73206466  0.51417108  0.45995337     0.11700
S3327       S  0.71874647  0.54848390  0.45039859    -0.06500
C3328       C  0.68370326  0.52648516  0.45630154    -0.10000
C3329       C  0.69510076  0.50974792  0.46110873    -0.26600
S3330       S  0.81594089  0.48612431  0.46497532    -0.03800
C3331       C  0.84969289  0.50603964  0.45886196    -0.17200
C3332       C  0.83982115  0.52606527  0.45438307    -0.15200
H3333       H  0.79800169  0.55606242  0.44782535     0.20100
H3334       H  0.73865267  0.48266640  0.46795299     0.16200
H3335       H  0.67681658  0.49413951  0.46515206     0.18700
H3336       H  0.85695901  0.53998188  0.45016199     0.12000
C3337       C  0.24152482  0.51889904  0.45246813     0.15900
C3338       C  0.28080260  0.53315644  0.45038447    -0.33100
C3339       C  0.30730978  0.52966183  0.45451198     0.20300
C3340       C  0.29531403  0.51306851  0.46046808     0.02500
C3341       C  0.25610008  0.49887031  0.46255150    -0.22800
C3342       C  0.22947520  0.50187452  0.45839520     0.11700
S3343       S  0.20491849  0.52059141  0.44819452    -0.06500
C3344       C  0.17280893  0.49755081  0.45442244    -0.10000
C3345       C  0.19001337  0.48931472  0.45953149    -0.26600
S3346       S  0.33120936  0.50982777  0.46466841    -0.03800
C3347       C  0.36269256  0.53050581  0.45829918    -0.17200
C3348       C  0.34612040  0.53999109  0.45324781    -0.15200
H3349       H  0.29015759  0.54600845  0.44572855     0.20100
H3350       H  0.24660729  0.48552837  0.46717570     0.16200
H3351       H  0.17469530  0.47556882  0.46389051     0.18700
H3352       H  0.36103148  0.55212394  0.44879730     0.12000
C3353       C  0.50523377  0.23402507  0.46131047     0.15900
C3354       C  0.51904815  0.27262483  0.46372556    -0.33100
C3355       C  0.50565852  0.29634542  0.46077418     0.20300
C3356       C  0.47939591  0.28180022  0.45570540     0.02500
C3357       C  0.46565383  0.24338213  0.45330634    -0.22800
C3358       C  0.47931527  0.21993374  0.45619666     0.11700
S3359       S  0.51847338  0.20094858  0.46411272    -0.06500
C3360       C  0.48912576  0.16800555  0.45828390    -0.10000
C3361       C  0.46999853  0.18211344  0.45441971    -0.26600
S3362       S  0.46680162  0.31458473  0.45266853    -0.03800
C3363       C  0.49756928  0.34897989  0.45821137    -0.17200
C3364       C  0.51635299  0.33517898  0.46225440    -0.15200
H3365       H  0.53961409  0.28376941  0.46767459     0.20100
H3366       H  0.44549891  0.23242218  0.44930438     0.16200
H3367       H  0.45061826  0.16577526  0.45050447     0.18700
H3368       H  0.53693121  0.35260656  0.46598277     0.12000
C3369       C  0.48670078  0.78441307  0.45173246     0.15900
C3370       C  0.48431613  0.74968820  0.44924699    -0.33100
C3371       C  0.50331892  0.73255025  0.45261430     0.20300
C3372       C  0.52410071  0.74940306  0.45815809     0.02500
C3373       C  0.52631230  0.78391371  0.46064774    -0.22800
C3374       C  0.50705345  0.80079182  0.45732223     0.11700
S3375       S  0.46606122  0.81020517  0.44838328    -0.06500
C3376       C  0.48499524  0.84318695  0.45461243    -0.10000
C3377       C  0.50601323  0.83429874  0.45900963    -0.26600
S3378       S  0.54466952  0.72397610  0.46159502    -0.03800
C3379       C  0.52427105  0.68961684  0.45558194    -0.17200
C3380       C  0.50331576  0.69814122  0.45110596    -0.15200
H3381       H  0.46820679  0.73650178  0.44491129     0.20100
H3382       H  0.54216312  0.79692743  0.46500931     0.16200
H3383       H  0.52034727  0.85179272  0.46319100     0.18700
H3384       H  0.48811213  0.67967023  0.44704943     0.12000
C3385       C  0.56717402  0.65670223  0.42160148     0.15900
C3386       C  0.56312857  0.67720103  0.41642812    -0.33100
C3387       C  0.59540800  0.69591702  0.41221667     0.20300
C3388       C  0.63046908  0.69502151  0.41319351     0.02500
C3389       C  0.63449025  0.67453923  0.41836029    -0.22800
C3390       C  0.60190155  0.65505209  0.42249127     0.11700
S3391       S  0.53141777  0.63171754  0.42721682    -0.06500
C3392       C  0.56321864  0.61817062  0.43076273    -0.10000
C3393       C  0.59972129  0.63278138  0.42769978    -0.26600
S3394       S  0.66590275  0.71890095  0.40750425    -0.03800
C3395       C  0.63280261  0.72928008  0.40363620    -0.17200
C3396       C  0.59655213  0.71555990  0.40674113    -0.15200
H3397       H  0.53580093  0.67802510  0.41566935     0.20100
H3398       H  0.66164041  0.67331744  0.41907326     0.16200
H3399       H  0.62364349  0.62781509  0.42924567     0.18700
H3400       H  0.57199346  0.71896317  0.40501428     0.12000
C3401       C  0.24336230  0.45420164  0.54530738     0.15900
C3402       C  0.20449934  0.44494654  0.54689281    -0.33100
C3403       C  0.18758183  0.46406610  0.54351581     0.20300
C3404       C  0.20803441  0.49086814  0.53870338     0.02500
C3405       C  0.24687277  0.49980472  0.53706067    -0.22800
C3406       C  0.26404939  0.48096764  0.54049690     0.11700
S3407       S  0.26970224  0.43563899  0.54908159    -0.06500
C3408       C  0.30923796  0.46414894  0.54413337    -0.10000
C3409       C  0.30187817  0.48662806  0.53977404    -0.26600
S3410       S  0.18249391  0.51212139  0.53540279    -0.03800
C3411       C  0.14425919  0.48507488  0.54065625    -0.17200
C3412       C  0.15107672  0.46046292  0.54462486    -0.15200
H3413       H  0.18845218  0.42438822  0.55069424     0.20100
H3414       H  0.26327451  0.52108682  0.53336168     0.16200
H3415       H  0.32332178  0.50662753  0.53634491     0.18700
H3416       H  0.13082973  0.44171056  0.54828646     0.12000
C3417       C  0.69604399  0.47078358  0.55004915     0.15900
C3418       C  0.72825771  0.46721427  0.55231168    -0.33100
C3419       C  0.76419386  0.48657572  0.54891053     0.20300
C3420       C  0.76810222  0.50906994  0.54357686     0.02500
C3421       C  0.73606949  0.51279013  0.54134238    -0.22800
C3422       C  0.70004362  0.49286925  0.54466431     0.11700
S3423       S  0.64944322  0.44879212  0.55335103    -0.06500
C3424       C  0.63531449  0.46932664  0.54735351    -0.10000
C3425       C  0.66538813  0.49202169  0.54308709    -0.26600
S3426       S  0.81354399  0.52936413  0.54000114    -0.03800
C3427       C  0.82745599  0.50683616  0.54568966    -0.17200
C3428       C  0.79827246  0.48514949  0.55015031    -0.15200
H3429       H  0.72525001  0.44959372  0.55646505     0.20100
H3430       H  0.73887887  0.52987321  0.53712824     0.16200
H3431       H  0.66211506  0.50722339  0.53902906     0.18700
H3432       H  0.80150605  0.46854627  0.55400366     0.12000
C3433       C  0.51292500  0.70348984  0.54469100     0.15900
C3434       C  0.52699449  0.74216185  0.54699940    -0.33100
C3435       C  0.51036139  0.76404253  0.54449200     0.20300
C3436       C  0.48143902  0.74832013  0.53979787     0.02500
C3437       C  0.46727945  0.70942538  0.53747514    -0.22800
C3438       C  0.48354100  0.68719449  0.54006882     0.11700
S3439       S  0.52817623  0.67213872  0.54743837    -0.06500
C3440       C  0.49397356  0.63580214  0.54244041    -0.10000
C3441       C  0.47254795  0.64810824  0.53871074    -0.26600
S3442       S  0.46560568  0.78011913  0.53732870    -0.03800
C3443       C  0.49806325  0.81476690  0.54272552    -0.17200
C3444       C  0.51978656  0.80195807  0.54623485    -0.15200
H3445       H  0.54954342  0.75443658  0.55066988     0.20100
H3446       H  0.44429875  0.69692235  0.53387413     0.16200
H3447       H  0.44927701  0.62920530  0.53540974     0.18700
H3448       H  0.54168835  0.81960185  0.54980038     0.12000
C3449       C  0.48695260  0.24805028  0.55135865     0.15900
C3450       C  0.50166978  0.22338515  0.55349872    -0.33100
C3451       C  0.49494234  0.19090155  0.54967437     0.20300
C3452       C  0.47421073  0.18341015  0.54402286     0.02500
C3453       C  0.45897365  0.20752525  0.54195314    -0.22800
C3454       C  0.46593895  0.23999546  0.54572884     0.11700
S3455       S  0.49441480  0.29060145  0.55501318    -0.06500
C3456       C  0.46899497  0.29743820  0.54886700    -0.10000
C3457       C  0.45522266  0.26791935  0.54430475    -0.26600
S3458       S  0.47011983  0.14390665  0.53990907    -0.03800
C3459       C  0.49644631  0.13671780  0.54585008    -0.17200
C3460       C  0.50773527  0.16392900  0.55078103    -0.15200
H3461       H  0.51835697  0.22975732  0.55786663     0.20100
H3462       H  0.44308149  0.20170209  0.53751268     0.16200
H3463       H  0.43972166  0.26779731  0.54003251     0.18700
H3464       H  0.52438856  0.16406534  0.55490608     0.12000
C3465       C  0.51457853  0.47548628  0.49586692     0.15900
C3466       C  0.53046817  0.48168799  0.50200179    -0.33100
C3467       C  0.50738332  0.48377634  0.50695573     0.20300
C3468       C  0.47000481  0.47944614  0.50586644     0.02500
C3469       C  0.45415391  0.47321671  0.49974737    -0.22800
C3470       C  0.47733320  0.47148963  0.49479529     0.11700
S3471       S  0.53867850  0.47453503  0.48914130    -0.06500
C3472       C  0.49840549  0.46937836  0.48482318    -0.10000
C3473       C  0.46782891  0.46773423  0.48850506    -0.26600
S3474       S  0.44641948  0.48231271  0.51250070    -0.03800
C3475       C  0.48746198  0.48979217  0.51682579    -0.17200
C3476       C  0.51760786  0.48982589  0.51323085    -0.15200
H3477       H  0.55974562  0.48527953  0.50286502     0.20100
H3478       H  0.42516087  0.47028967  0.49887257     0.16200
H3479       H  0.44081242  0.46596989  0.48665537     0.18700
H3480       H  0.54531017  0.49343739  0.51512258     0.12000
C3481       C  0.08151305  0.62472104  0.92054563     0.15900
C3482       C  0.10705811  0.64805605  0.91569494    -0.33100
C3483       C  0.09163741  0.66303630  0.91115107     0.20300
C3484       C  0.05237416  0.65489786  0.91136868     0.02500
C3485       C  0.02673909  0.63153156  0.91624130    -0.22800
C3486       C  0.04234250  0.61684889  0.92084091     0.11700
S3487       S  0.09511512  0.60471818  0.92656004    -0.06500
C3488       C  0.04777107  0.58604345  0.92962390    -0.10000
C3489       C  0.02273419  0.59458510  0.92605629    -0.26600
S3490       S  0.03958526  0.67582243  0.90534582    -0.03800
C3491       C  0.08777738  0.69592312  0.90254998    -0.17200
C3492       C  0.11208877  0.68658326  0.90612670    -0.15200
H3493       H  0.13775351  0.65450858  0.91549746     0.20100
H3494       H  0.99614179  0.62534523  0.91646390     0.16200
H3495       H  0.99210121  0.58551210  0.92725765     0.18700
H3496       H  0.14315406  0.69648730  0.90510642     0.12000
C3497       C  0.17645790  0.79975630  0.83932560     0.15900
C3498       C  0.18678997  0.79002872  0.83354405    -0.33100
C3499       C  0.15830178  0.77692163  0.82870128     0.20300
C3500       C  0.12096833  0.77310879  0.82958815     0.02500
C3501       C  0.11039693  0.78225848  0.83540289    -0.22800
C3502       C  0.13916374  0.79603141  0.84021197     0.11700
S3503       S  0.20699436  0.81660517  0.84576323    -0.06500
C3504       C  0.16910874  0.81874570  0.84969952    -0.10000
C3505       C  0.13482544  0.80707459  0.84614819    -0.26600
S3506       S  0.09235237  0.76093951  0.82294230    -0.03800
C3507       C  0.13151002  0.76194159  0.81888646    -0.17200
C3508       C  0.16426878  0.76988697  0.82259750    -0.15200
H3509       H  0.21610603  0.79348863  0.83280310     0.20100
H3510       H  0.08151253  0.77993079  0.83608918     0.16200
H3511       H  0.10764247  0.80536406  0.84788500     0.18700
H3512       H  0.19237218  0.77397625  0.82082471     0.12000
C3513       C  0.37943802  0.80504297  0.79597722     0.15900
C3514       C  0.40672832  0.79391157  0.79824522    -0.33100
C3515       C  0.44328888  0.80880167  0.79504734     0.20300
C3516       C  0.45211805  0.83395500  0.78988924     0.02500
C3517       C  0.42507671  0.84519440  0.78765883    -0.22800
C3518       C  0.38856604  0.83000464  0.79079005     0.11700
S3519       S  0.33301317  0.78935135  0.79901558    -0.06500
C3520       C  0.32595511  0.81651791  0.79318479    -0.10000
C3521       C  0.35810767  0.83669616  0.78916548    -0.26600
S3522       S  0.49694472  0.84807778  0.78649279    -0.03800
C3523       C  0.50437011  0.81956946  0.79201400    -0.17200
C3524       C  0.47335817  0.80038745  0.79631434    -0.15200
H3525       H  0.39952225  0.77406772  0.80224943     0.20100
H3526       H  0.43196259  0.86445862  0.78358263     0.16200
H3527       H  0.35903538  0.85499857  0.78522360     0.18700
H3528       H  0.47246719  0.78082577  0.80004901     0.12000
C3529       C  0.93348150  0.79446376  0.79118443     0.15900
C3530       C  0.89381059  0.78029746  0.79294363    -0.33100
C3531       C  0.87092473  0.79080205  0.78914283     0.20300
C3532       C  0.88661504  0.81411979  0.78378596     0.02500
C3533       C  0.92634451  0.82797855  0.78197850    -0.22800
C3534       C  0.94945573  0.81776181  0.78582945     0.11700
S3535       S  0.96598072  0.78563694  0.79530563    -0.06500
C3536       C  0.00182984  0.81369650  0.78977782    -0.10000
C3537       C  0.98890093  0.82893144  0.78498062    -0.26600
S3538       S  0.85408390  0.82478303  0.77997603    -0.03800
C3539       C  0.81914014  0.79747088  0.78568110    -0.17200
C3540       C  0.83226945  0.78103656  0.79023940    -0.15200
H3541       H  0.88147632  0.76232537  0.79714777     0.20100
H3542       H  0.93883776  0.84639152  0.77782286     0.16200
H3543       H  0.00721813  0.84696759  0.78109573     0.18700
H3544       H  0.81483421  0.76378684  0.79425127     0.12000
C3545       C  0.59023367  0.88049660  0.91317812     0.15900
C3546       C  0.56560915  0.87475383  0.91839218    -0.33100
C3547       C  0.57732093  0.90675160  0.92259190     0.20300
C3548       C  0.61238489  0.94275987  0.92169606     0.02500
C3549       C  0.63742090  0.94831916  0.91651616    -0.22800
C3550       C  0.62539367  0.91639492  0.91225167     0.11700
S3551       S  0.57974241  0.84595436  0.90740344    -0.06500
C3552       C  0.62317721  0.87992381  0.90362522    -0.10000
C3553       C  0.64466486  0.91621410  0.90678148    -0.26600
S3554       S  0.62043765  0.97825295  0.92723499    -0.03800
C3555       C  0.57590574  0.94432389  0.93077203    -0.17200
C3556       C  0.55638120  0.90738393  0.92778454    -0.15200
H3557       H  0.53801368  0.84677566  0.91907067     0.20100
H3558       H  0.66464390  0.97653771  0.91577715     0.16200
H3559       H  0.67234167  0.94130348  0.90510836     0.18700
H3560       H  0.52805164  0.88241907  0.92928097     0.12000
C3561       C  0.37577532  0.81172377  0.88406264     0.15900
C3562       C  0.40720779  0.80663197  0.88625971    -0.33100
C3563       C  0.44311948  0.82512211  0.88284244     0.20300
C3564       C  0.44782355  0.84825201  0.87755714     0.02500
C3565       C  0.41656063  0.85348874  0.87538759    -0.22800
C3566       C  0.38051304  0.83440620  0.87872234     0.11700
S3567       S  0.32904615  0.79033471  0.88731746    -0.06500
C3568       C  0.31573659  0.81156282  0.88131985    -0.10000
C3569       C  0.34630718  0.83443700  0.87713509    -0.26600
S3570       S  0.49315290  0.86729259  0.87395859    -0.03800
C3571       C  0.50588571  0.84338225  0.87957953    -0.17200
C3572       C  0.47640895  0.82218620  0.88402670    -0.15200
H3573       H  0.40357681  0.78840480  0.89036209     0.20100
H3574       H  0.41988036  0.87094015  0.87119725     0.16200
H3575       H  0.34351821  0.84986206  0.87306583     0.18700
H3576       H  0.47883470  0.80477210  0.88782978     0.12000
C3577       C  0.86232868  0.78573696  0.87772349     0.15900
C3578       C  0.88767373  0.77242470  0.87999447    -0.33100
C3579       C  0.92447381  0.78642965  0.87698982     0.20300
C3580       C  0.93554256  0.81242778  0.87190644     0.02500
C3581       C  0.91003892  0.82578169  0.86961352    -0.22800
C3582       C  0.87310907  0.81184247  0.87265589     0.11700
S3583       S  0.81718462  0.77272361  0.88091114    -0.06500
C3584       C  0.81219383  0.80274232  0.87538828    -0.10000
C3585       C  0.84426928  0.82178135  0.87126831    -0.26600
S3586       S  0.98193180  0.82639247  0.86901310    -0.03800
C3587       C  0.98645273  0.79714999  0.87476181    -0.17200
C3588       C  0.95347551  0.77756887  0.87865360    -0.15200
H3589       H  0.87921898  0.75231875  0.88398770     0.20100
H3590       H  0.91875946  0.84637382  0.86568371     0.16200
H3591       H  0.84667817  0.84219749  0.86756601     0.18700
H3592       H  0.95105105  0.75832618  0.88254928     0.12000
C3593       C  0.62598015  0.79898762  0.82821018     0.15900
C3594       C  0.61614318  0.78209413  0.83426938    -0.33100
C3595       C  0.64469377  0.80056785  0.83909552     0.20300
C3596       C  0.68129363  0.83447340  0.83796776     0.02500
C3597       C  0.69095148  0.85156215  0.83192913    -0.22800
C3598       C  0.66251060  0.83301970  0.82710533     0.11700
S3599       S  0.59693854  0.77957663  0.82159087    -0.06500
C3600       C  0.63460845  0.81761028  0.81727556    -0.10000
C3601       C  0.66738761  0.84405047  0.82088562    -0.26600
S3602       S  0.71151755  0.85262317  0.84448413    -0.03800
C3603       C  0.67431872  0.81430339  0.84882418    -0.17200
C3604       C  0.64062055  0.78881060  0.84529046    -0.15200
H3605       H  0.58771958  0.75540787  0.83516698     0.20100
H3606       H  0.71957650  0.87795650  0.83101127     0.16200
H3607       H  0.69453064  0.86885978  0.81899969     0.18700
H3608       H  0.61388880  0.76361189  0.84719848     0.12000
C3609       C  0.13695563  0.02596072  0.78741701     0.15900
C3610       C  0.12359764  0.05143095  0.78519676    -0.33100
C3611       C  0.13177768  0.08463345  0.78891579     0.20300
C3612       C  0.15198707  0.09181881  0.79461420     0.02500
C3613       C  0.16525246  0.06635137  0.79683695    -0.22800
C3614       C  0.15747800  0.03348392  0.79308927     0.11700
S3615       S  0.13026251  0.98430653  0.78359575    -0.06500
C3616       C  0.15580328  0.97728711  0.78968158    -0.10000
C3617       C  0.16848856  0.00570274  0.79441193    -0.26600
S3618       S  0.16025106  0.13417433  0.79834437    -0.03800
C3619       C  0.13689530  0.14292111  0.79211293    -0.17200
C3620       C  0.12278847  0.11384384  0.78745843    -0.15200
H3621       H  0.10793904  0.04586105  0.78073951     0.20100
H3622       H  0.18138943  0.07220014  0.80125402     0.16200
H3623       H  0.18454198  0.00582312  0.79861645     0.18700
H3624       H  0.10800229  0.11469091  0.78316254     0.12000
C3625       C  0.15834591  0.59195573  0.79600112     0.15900
C3626       C  0.16701101  0.56251110  0.79799265    -0.33100
C3627       C  0.15411334  0.52871061  0.79414207     0.20300
C3628       C  0.13331258  0.52426223  0.78858026     0.02500
C3629       C  0.12442679  0.55352475  0.78661063    -0.22800
C3630       C  0.13752319  0.58734715  0.79043896     0.11700
S3631       S  0.17314607  0.63623209  0.79980673    -0.06500
C3632       C  0.15161293  0.64881690  0.79376334    -0.10000
C3633       C  0.13324600  0.61961706  0.78916695    -0.26600
S3634       S  0.12083384  0.48146173  0.78452649    -0.03800
C3635       C  0.14388774  0.46927868  0.79038600    -0.17200
C3636       C  0.16023696  0.49720646  0.79520954    -0.15200
H3637       H  0.18358018  0.56605032  0.80230052     0.20100
H3638       H  0.10852342  0.55035965  0.78223963     0.16200
H3639       H  0.11863459  0.62238431  0.78498430     0.18700
H3640       H  0.17599205  0.49473493  0.79926191     0.12000
C3641       C  0.36879729  0.53379660  0.79394599     0.15900
C3642       C  0.39712221  0.57312375  0.79562388    -0.33100
C3643       C  0.43174161  0.59302388  0.79191214     0.20300
C3644       C  0.43785681  0.57463796  0.78676024     0.02500
C3645       C  0.40968514  0.53533062  0.78510591    -0.22800
C3646       C  0.37516949  0.51547027  0.78881447     0.11700
S3647       S  0.32425235  0.50475766  0.79770659    -0.06500
C3648       C  0.31414377  0.46758425  0.79229039    -0.10000
C3649       C  0.34410570  0.47751983  0.78786281    -0.26600
S3650       S  0.48158425  0.60373756  0.78283963    -0.03800
C3651       C  0.49214730  0.64111733  0.78823235    -0.17200
C3652       C  0.46284086  0.63121929  0.79278543    -0.15200
H3653       H  0.39231021  0.58762979  0.79962241     0.20100
H3654       H  0.41437484  0.52090465  0.78108292     0.16200
H3655       H  0.34286619  0.45828765  0.78404762     0.18700
H3656       H  0.46429278  0.65084546  0.79654984     0.12000
C3657       C  0.88833662  0.00994143  0.78713425     0.15900
C3658       C  0.92453755  0.04078504  0.78478840    -0.33100
C3659       C  0.94156482  0.07768698  0.78789377     0.20300
C3660       C  0.92370942  0.08340490  0.79315718     0.02500
C3661       C  0.88791287  0.05242157  0.79556320    -0.22800
C3662       C  0.87062337  0.01575240  0.79240674     0.11700
S3663       S  0.86127580  0.96397316  0.78375169    -0.06500
C3664       C  0.82570210  0.95261837  0.78949691    -0.10000
C3665       C  0.83483449  0.98283767  0.79382202    -0.26600
S3666       S  0.94853080  0.13038858  0.79620105    -0.03800
C3667       C  0.98347760  0.14259870  0.79032876    -0.17200
C3668       C  0.97598172  0.11166092  0.78623340    -0.15200
H3669       H  0.93831977  0.03648473  0.78064542     0.20100
H3670       H  0.87374657  0.05694353  0.79963714     0.16200
H3671       H  0.81558273  0.98138792  0.79764678     0.18700
H3672       H  0.99476223  0.11382627  0.78228988     0.12000
C3673       C  0.31973821  0.35765701  0.91228222     0.15900
C3674       C  0.34018921  0.35280330  0.91739097    -0.33100
C3675       C  0.35729000  0.38367739  0.92187601     0.20300
C3676       C  0.35372994  0.41754173  0.92130694     0.02500
C3677       C  0.33322625  0.42228428  0.91622985    -0.22800
C3678       C  0.31658401  0.39174706  0.91172288     0.11700
S3679       S  0.29710627  0.32401384  0.90631142    -0.06500
C3680       C  0.28345438  0.35637389  0.90301569    -0.10000
C3681       C  0.29601823  0.39130247  0.90641432    -0.26600
S3682       S  0.37668556  0.45186494  0.92713613    -0.03800
C3683       C  0.39169982  0.42062152  0.93041678    -0.17200
C3684       C  0.37911110  0.38521589  0.92711803    -0.15200
H3685       H  0.34288351  0.32630986  0.91782390     0.20100
H3686       H  0.33065292  0.44884297  0.91578487     0.16200
H3687       H  0.29012244  0.41498488  0.90510423     0.18700
H3688       H  0.38577829  0.36209256  0.92844987     0.12000
C3689       C  0.15316207  0.32810464  0.83938191     0.15900
C3690       C  0.15727615  0.34722699  0.83357741    -0.33100
C3691       C  0.17627914  0.33888092  0.82866556     0.20300
C3692       C  0.19035824  0.31245505  0.82949740     0.02500
C3693       C  0.18665295  0.29364691  0.83532779    -0.22800
C3694       C  0.16763443  0.30202068  0.84023990     0.11700
S3695       S  0.13220169  0.33537016  0.84595275    -0.06500
C3696       C  0.14340499  0.30326383  0.84995836    -0.10000
C3697       C  0.16187729  0.28742102  0.84629238    -0.26600
S3698       S  0.20877470  0.30322553  0.82279942    -0.03800
C3699       C  0.19724587  0.33517754  0.81879525    -0.17200
C3700       C  0.18082315  0.35260361  0.82256846    -0.15200
H3701       H  0.14586397  0.36750630  0.83290515     0.20100
H3702       H  0.19756423  0.27293476  0.83597716     0.16200
H3703       H  0.17260841  0.26813135  0.84805025     0.18700
H3704       H  0.16950711  0.37145171  0.82083399     0.12000
C3705       C  0.89729280  0.03470478  0.87372477     0.15900
C3706       C  0.93432161  0.06248276  0.87107821    -0.33100
C3707       C  0.95875047  0.09753681  0.87451269     0.20300
C3708       C  0.94656136  0.10437929  0.88030072     0.02500
C3709       C  0.90984598  0.07660642  0.88295229    -0.22800
C3710       C  0.88559987  0.04166354  0.87954544     0.11700
S3711       S  0.86298688  0.99066997  0.87031363    -0.06500
C3712       C  0.83276839  0.98150078  0.87683167    -0.10000
C3713       C  0.84880235  0.01125578  0.88136784    -0.26600
S3714       S  0.97958485  0.14842168  0.88373938    -0.03800
C3715       C  0.01067292  0.15826617  0.87733643    -0.17200
C3716       C  0.99581943  0.12842644  0.87277939    -0.15200
H3717       H  0.94358041  0.05707490  0.86654265     0.20100
H3718       H  0.90053066  0.08207618  0.88747980     0.16200
H3719       H  0.83421797  0.01083163  0.88574878     0.18700
H3720       H  0.01119723  0.12924723  0.86846793     0.12000
C3721       C  0.44170163  0.60996345  0.88208465     0.15900
C3722       C  0.40571512  0.57876582  0.88444896    -0.33100
C3723       C  0.39080931  0.54091818  0.88169701     0.20300
C3724       C  0.41075434  0.53440643  0.87681724     0.02500
C3725       C  0.44663127  0.56552264  0.87446001    -0.22800
C3726       C  0.46146316  0.60326961  0.87719842     0.11700
S3727       S  0.46510156  0.65812720  0.88476500    -0.06500
C3728       C  0.50164721  0.66919106  0.87919711    -0.10000
C3729       C  0.49576101  0.63706703  0.87552092    -0.26600
S3730       S  0.38717001  0.48686298  0.87394312    -0.03800
C3731       C  0.34963426  0.47559835  0.87931378    -0.17200
C3732       C  0.35579092  0.50711291  0.88319158    -0.15200
H3733       H  0.38993157  0.58380005  0.88823097     0.20100
H3734       H  0.46214673  0.56060985  0.87062094     0.16200
H3735       H  0.51576663  0.63826197  0.87184207     0.18700
H3736       H  0.33506524  0.50576814  0.88675142     0.12000
C3737       C  0.14641700  0.02087987  0.87244873     0.15900
C3738       C  0.13831523  0.05078845  0.87043787    -0.33100
C3739       C  0.15451872  0.08615989  0.87401773     0.20300
C3740       C  0.17743863  0.09126036  0.87935649     0.02500
C3741       C  0.18557864  0.06164471  0.88133491    -0.22800
C3742       C  0.16965414  0.02663274  0.87776293     0.11700
S3743       S  0.12945113  0.97530448  0.86889688    -0.06500
C3744       C  0.15416006  0.96439102  0.87465866    -0.10000
C3745       C  0.17426215  0.99465537  0.87903084    -0.26600
S3746       S  0.19424489  0.13561742  0.88312803    -0.03800
C3747       C  0.17076888  0.14817444  0.87742093    -0.17200
C3748       C  0.15057613  0.11898689  0.87286627    -0.15200
H3749       H  0.12024879  0.04669147  0.86628972     0.20100
H3750       H  0.20355164  0.06569653  0.88549688     0.16200
H3751       H  0.19112886  0.99321675  0.88301486     0.18700
H3752       H  0.13393441  0.12161146  0.86895597     0.12000
C3753       C  0.17161791  0.58777332  0.88442387     0.15900
C3754       C  0.18391369  0.56166958  0.88683185    -0.33100
C3755       C  0.18031455  0.53091121  0.88285234     0.20300
C3756       C  0.16525611  0.52671606  0.87677850     0.02500
C3757       C  0.15282844  0.55243153  0.87441148    -0.22800
C3758       C  0.15621013  0.58278793  0.87836687     0.11700
S3759       S  0.17512228  0.62828560  0.88828411    -0.06500
C3760       C  0.15584666  0.63832845  0.88161842    -0.10000
C3761       C  0.14659175  0.61116153  0.87677352    -0.26600
S3762       S  0.16262887  0.48799550  0.87264438    -0.03800
C3763       C  0.18168387  0.47643755  0.87915249    -0.17200
C3764       C  0.18998031  0.50193459  0.88426119    -0.15200
H3765       H  0.19594569  0.56532746  0.89155789     0.20100
H3766       H  0.14111969  0.54899273  0.86966342     0.16200
H3767       H  0.13499255  0.61301737  0.87220542     0.18700
H3768       H  0.20148927  0.49891864  0.88876468     0.12000
C3769       C  0.29201496  0.99276616  0.74845501     0.15900
C3770       C  0.29425571  0.97114756  0.75361398    -0.33100
C3771       C  0.26158820  0.95379355  0.75776674     0.20300
C3772       C  0.22828958  0.95795025  0.75683295     0.02500
C3773       C  0.22618479  0.97979024  0.75170976    -0.22800
C3774       C  0.25871200  0.99693736  0.74754665     0.11700
S3775       S  0.32778150  0.01492495  0.74275431    -0.06500
C3776       C  0.29732624  0.02955866  0.73905847    -0.10000
C3777       C  0.26166466  0.01818083  0.74219348    -0.26600
S3778       S  0.19162590  0.93439427  0.76233815    -0.03800
C3779       C  0.22138174  0.91874607  0.76598837    -0.17200
C3780       C  0.25784475  0.93134316  0.76302278    -0.15200
H3781       H  0.32013930  0.96767326  0.75432365     0.20100
H3782       H  0.20012800  0.98293125  0.75096464     0.16200
H3783       H  0.23873748  0.02448449  0.74058280     0.18700
H3784       H  0.28043613  0.92455389  0.76463190     0.12000
C3785       C  0.32179771  0.16217360  0.66495202     0.15900
C3786       C  0.31211127  0.16778242  0.67108558    -0.33100
C3787       C  0.34005374  0.17492310  0.67587174     0.20300
C3788       C  0.37609620  0.17658942  0.67462729     0.02500
C3789       C  0.38583104  0.17111093  0.66849560    -0.22800
C3790       C  0.35778360  0.16368909  0.66372148     0.11700
S3791       S  0.29218372  0.15336957  0.65845748    -0.06500
C3792       C  0.32861673  0.15136313  0.65405081    -0.10000
C3793       C  0.36178301  0.15738449  0.65749515    -0.26600
S3794       S  0.40468152  0.18288885  0.68115080    -0.03800
C3795       C  0.36738600  0.18269748  0.68562797    -0.17200
C3796       C  0.33507827  0.17880920  0.68216075    -0.15200
H3797       H  0.28386065  0.16617888  0.67209803     0.20100
H3798       H  0.41374342  0.17193588  0.66750382     0.16200
H3799       H  0.38795643  0.15802120  0.65552194     0.18700
H3800       H  0.30813468  0.17629258  0.68417040     0.12000
C3801       C  0.41672528  0.30693291  0.59021038     0.15900
C3802       C  0.43994468  0.32549331  0.58485061    -0.33100
C3803       C  0.42479459  0.34159269  0.58042292     0.20300
C3804       C  0.38820427  0.33946423  0.58129850     0.02500
C3805       C  0.36481948  0.32061157  0.58664102    -0.22800
C3806       C  0.37990209  0.30434291  0.59106194     0.11700
S3807       S  0.43010908  0.28604737  0.59615071    -0.06500
C3808       C  0.38543831  0.27323773  0.59983224    -0.10000
C3809       C  0.36169229  0.28486097  0.59655994    -0.26600
S3810       S  0.37542206  0.36127841  0.57540444    -0.03800
C3811       C  0.41972032  0.37315676  0.57167904    -0.17200
C3812       C  0.44294208  0.36074287  0.57491455    -0.15200
H3813       H  0.46863277  0.32738040  0.58416792     0.20100
H3814       H  0.33615484  0.31876318  0.58732667     0.16200
H3815       H  0.33275125  0.27951954  0.59813005     0.18700
H3816       H  0.47161290  0.36543546  0.57331949     0.12000
C3817       C  0.55905669  0.35090744  0.70754510     0.15900
C3818       C  0.59468677  0.38205821  0.70501978    -0.33100
C3819       C  0.61607800  0.41675530  0.70868907     0.20300
C3820       C  0.60261142  0.41993677  0.71460399     0.02500
C3821       C  0.56721718  0.38899036  0.71710916    -0.22800
C3822       C  0.54579962  0.35468559  0.71343889     0.11700
S3823       S  0.52846891  0.30617903  0.70392620    -0.06500
C3824       C  0.49754168  0.29296503  0.71042021    -0.10000
C3825       C  0.51062485  0.32178724  0.71509595    -0.26600
S3826       S  0.63243243  0.46368699  0.71839456    -0.03800
C3827       C  0.66372771  0.47848488  0.71194989    -0.17200
C3828       C  0.65134114  0.45049586  0.70711946    -0.15200
H3829       H  0.60520573  0.37939386  0.70041453     0.20100
H3830       H  0.55675526  0.39158536  0.72172579     0.16200
H3831       H  0.49539738  0.31869563  0.71952606     0.18700
H3832       H  0.66735726  0.45446100  0.70274713     0.12000
C3833       C  0.03891982  0.86956813  0.71703273     0.15900
C3834       C  0.07130596  0.90395042  0.71963086    -0.33100
C3835       C  0.10717347  0.92237205  0.71619495     0.20300
C3836       C  0.11041748  0.90746047  0.71041241     0.02500
C3837       C  0.07803874  0.87347254  0.70779679    -0.22800
C3838       C  0.04247298  0.85489016  0.71125081     0.11700
S3839       S  0.99331869  0.84151841  0.72054090    -0.06500
C3840       C  0.97918768  0.80976720  0.71413741    -0.10000
C3841       C  0.00839833  0.82077166  0.70956362    -0.26600
S3842       S  0.15632103  0.93334338  0.70700647    -0.03800
C3843       C  0.17174083  0.96469896  0.71345263    -0.17200
C3844       C  0.14236723  0.95543952  0.71796467    -0.15200
H3845       H  0.06886431  0.91544366  0.72416405     0.20100
H3846       H  0.08063591  0.86165450  0.70330235     0.16200
H3847       H  0.00520648  0.80418320  0.70527592     0.18700
H3848       H  0.14653611  0.97193013  0.72229595     0.12000
C3849       C  0.72288166  0.68636394  0.74637506     0.15900
C3850       C  0.69500252  0.68308700  0.75092334    -0.33100
C3851       C  0.70540440  0.71646089  0.75477594     0.20300
C3852       C  0.74189681  0.75136866  0.75410935     0.02500
C3853       C  0.76956694  0.75466435  0.74956094    -0.22800
C3854       C  0.75925120  0.72141549  0.74573387     0.11700
S3855       S  0.71595687  0.64979705  0.74115389    -0.06500
C3856       C  0.76245113  0.68232310  0.73805429    -0.10000
C3857       C  0.78212572  0.71924495  0.74100073    -0.26600
S3858       S  0.74993853  0.78795991  0.75935009    -0.03800
C3859       C  0.70362059  0.75612996  0.76253393    -0.17200
C3860       C  0.68305839  0.71907933  0.75959598    -0.15200
H3861       H  0.66658069  0.65576099  0.75144531     0.20100
H3862       H  0.79805028  0.78194313  0.74905149     0.16200
H3863       H  0.81119729  0.74362784  0.73964550     0.18700
H3864       H  0.65409099  0.69495660  0.76104874     0.12000
C3865       C  0.08281205  0.88229779  0.62253406     0.15900
C3866       C  0.12076169  0.91239410  0.62069204    -0.33100
C3867       C  0.13986038  0.94654131  0.62447894     0.20300
C3868       C  0.12221784  0.95083507  0.62988432     0.02500
C3869       C  0.08413357  0.92049342  0.63175819    -0.22800
C3870       C  0.06492807  0.88614483  0.62795085     0.11700
S3871       S  0.05489913  0.83887557  0.61849428    -0.06500
C3872       C  0.01860836  0.82520595  0.62417918    -0.10000
C3873       C  0.02793925  0.85329615  0.62893303    -0.26600
S3874       S  0.15044271  0.99551679  0.63368888    -0.03800
C3875       C  0.18603941  0.00835751  0.62788000    -0.17200
C3876       C  0.17634541  0.97916313  0.62333009    -0.15200
H3877       H  0.13471975  0.90944487  0.61645673     0.20100
H3878       H  0.07002888  0.92360592  0.63596098     0.16200
H3879       H  0.00872389  0.84987613  0.63288213     0.18700
H3880       H  0.19469404  0.98197183  0.61928670     0.12000
C3881       C  0.63703015  0.44130618  0.61969100     0.15900
C3882       C  0.60379661  0.40691816  0.61726554    -0.33100
C3883       C  0.56874042  0.38913907  0.62091020     0.20300
C3884       C  0.56672295  0.40520384  0.62665336     0.02500
C3885       C  0.59975896  0.43956981  0.62904927    -0.22800
C3886       C  0.63481798  0.45696324  0.62545921     0.11700
S3887       S  0.68272361  0.46724147  0.61610947    -0.06500
C3888       C  0.69875666  0.49938367  0.62247559    -0.10000
C3889       C  0.67000520  0.49006651  0.62708086    -0.26600
S3890       S  0.52216047  0.37882996  0.63046631    -0.03800
C3891       C  0.50603778  0.34513313  0.62432833    -0.17200
C3892       C  0.53386187  0.35460693  0.61953750    -0.15200
H3893       H  0.60535483  0.39427518  0.61279050     0.20100
H3894       H  0.59837894  0.45192008  0.63356451     0.16200
H3895       H  0.67450728  0.50682770  0.63139485     0.18700
H3896       H  0.52915426  0.33672180  0.61535069     0.12000
C3897       C  0.86855166  0.67748592  0.66351679     0.15900
C3898       C  0.88426975  0.68758467  0.66965393    -0.33100
C3899       C  0.86630471  0.65842742  0.67439558     0.20300
C3900       C  0.83428059  0.62079499  0.67309494     0.02500
C3901       C  0.81876711  0.61060734  0.66695440    -0.22800
C3902       C  0.83644852  0.63988419  0.66223118     0.11700
S3903       S  0.88600956  0.70840943  0.65707123    -0.06500
C3904       C  0.84947690  0.67030798  0.65258759    -0.10000
C3905       C  0.82528011  0.63570826  0.65600647    -0.26600
S3906       S  0.81510601  0.59064608  0.67958191    -0.03800
C3907       C  0.85047471  0.62921861  0.68413599    -0.17200
C3908       C  0.87592110  0.66328434  0.68069489    -0.15200
H3909       H  0.90910019  0.71704419  0.67070654     0.20100
H3910       H  0.79354244  0.58134901  0.66592152     0.16200
H3911       H  0.80133365  0.60837115  0.65400347     0.18700
H3912       H  0.89888597  0.69104524  0.68274292     0.12000
C3913       C  0.94188239  0.61611942  0.58800598     0.15900
C3914       C  0.96388401  0.62141082  0.58246616    -0.33100
C3915       C  0.95090518  0.58849722  0.57839774     0.20300
C3916       C  0.91721085  0.55211079  0.57974652     0.02500
C3917       C  0.89521977  0.54683741  0.58527945    -0.22800
C3918       C  0.90847273  0.57958052  0.58938276     0.11700
S3919       S  0.95303808  0.65206676  0.59360394    -0.06500
C3920       C  0.91251164  0.61743478  0.59790158    -0.10000
C3921       C  0.89150890  0.58012149  0.59504462    -0.26600
S3922       S  0.90600267  0.51604370  0.57417952    -0.03800
C3923       C  0.94731520  0.55016051  0.56997595    -0.17200
C3924       C  0.96847902  0.58750441  0.57281843    -0.15200
H3925       H  0.99011397  0.64986072  0.58139465     0.20100
H3926       H  0.86902571  0.51836858  0.58635554     0.16200
H3927       H  0.86527256  0.55464833  0.59701415     0.18700
H3928       H  0.99500391  0.61273939  0.57086833     0.12000
C3929       C  0.85003295  0.93699277  0.70859061     0.15900
C3930       C  0.83530812  0.89767117  0.70652081    -0.33100
C3931       C  0.83609932  0.87043455  0.71078946     0.20300
C3932       C  0.85145534  0.88193929  0.71682918     0.02500
C3933       C  0.86615865  0.92138387  0.71890960    -0.22800
C3934       C  0.86492997  0.94863126  0.71465299     0.11700
S3935       S  0.84971938  0.97359278  0.70418656    -0.06500
C3936       C  0.86926988  0.00519040  0.71059209    -0.10000
C3937       C  0.87625354  0.98795235  0.71583371    -0.26600
S3938       S  0.85098454  0.84455567  0.72119880    -0.03800
C3939       C  0.82945904  0.81304750  0.71483478    -0.17200
C3940       C  0.82310308  0.83091680  0.70963437    -0.15200
H3941       H  0.82337773  0.88860879  0.70180132     0.20100
H3942       H  0.87781010  0.93035378  0.72364297     0.16200
H3943       H  0.88737972  0.00277805  0.72032500     0.18700
H3944       H  0.81083612  0.81613343  0.70517326     0.12000
C3945       C  0.85945020  0.44270832  0.71136569     0.15900
C3946       C  0.87259796  0.41722086  0.71364195    -0.33100
C3947       C  0.85714565  0.37968347  0.71081258     0.20300
C3948       C  0.83002356  0.36812850  0.70586941     0.02500
C3949       C  0.81646181  0.39361977  0.70361855    -0.22800
C3950       C  0.83170923  0.43124510  0.70651160     0.11700
S3951       S  0.87447476  0.48880035  0.71433953    -0.06500
C3952       C  0.84237925  0.49303987  0.70912992    -0.10000
C3953       C  0.82165697  0.46017432  0.70518525    -0.26600
S3954       S  0.81564428  0.32148829  0.70301812    -0.03800
C3955       C  0.84602936  0.31738400  0.70862043    -0.17200
C3956       C  0.86624183  0.35073349  0.71244058    -0.15200
H3957       H  0.89385103  0.42623146  0.71749296     0.20100
H3958       H  0.79489120  0.38444925  0.69981375     0.16200
H3959       H  0.79982086  0.45715283  0.70169087     0.18700
H3960       H  0.88669162  0.35376628  0.71618755     0.12000
C3961       C  0.12026583  0.12602249  0.71645900     0.15900
C3962       C  0.08388464  0.12174800  0.71854918    -0.33100
C3963       C  0.06806822  0.14203125  0.71517999     0.20300
C3964       C  0.08767448  0.16572430  0.71000535     0.02500
C3965       C  0.12382977  0.16983666  0.70790988    -0.22800
C3966       C  0.13942994  0.14935948  0.71123531     0.11700
S3967       S  0.14494828  0.10431012  0.71987534    -0.06500
C3968       C  0.18124978  0.12683780  0.71416206    -0.10000
C3969       C  0.17414461  0.14974981  0.70988096    -0.26600
S3970       S  0.06369890  0.18774591  0.70653128    -0.03800
C3971       C  0.02647388  0.16447695  0.71206695    -0.17200
C3972       C  0.03280517  0.14112714  0.71638032    -0.15200
H3973       H  0.06854810  0.10338387  0.72260048     0.20100
H3974       H  0.13909518  0.18810214  0.70384557     0.16200
H3975       H  0.19363234  0.16627092  0.70599549     0.18700
H3976       H  0.01246627  0.12401001  0.72014367     0.12000
C3977       C  0.56015722  0.11410137  0.71271413     0.15900
C3978       C  0.59034233  0.10552207  0.71421010    -0.33100
C3979       C  0.62515394  0.12343970  0.71055195     0.20300
C3980       C  0.62999488  0.14876678  0.70558005     0.02500
C3981       C  0.59943934  0.15704472  0.70401811    -0.22800
C3982       C  0.56450194  0.13915360  0.70772121     0.11700
S3983       S  0.51648772  0.09646520  0.71680322    -0.06500
C3984       C  0.50353076  0.12304923  0.71175371    -0.10000
C3985       C  0.53189222  0.14421373  0.70712096    -0.26600
S3986       S  0.67570725  0.16862452  0.70194141    -0.03800
C3987       C  0.68812397  0.14239273  0.70720015    -0.17200
C3988       C  0.65804113  0.11953317  0.71147325    -0.15200
H3989       H  0.58711251  0.08617788  0.71813541     0.20100
H3990       H  0.60297832  0.17699468  0.70016862     0.16200
H3991       H  0.52907832  0.16281698  0.70356530     0.18700
H3992       H  0.66040749  0.10158189  0.71519485     0.12000
C3993       C  0.98497218  0.25082630  0.74590888     0.15900
C3994       C  0.00422968  0.27535568  0.75114959    -0.33100
C3995       C  0.02083679  0.26126318  0.75568856     0.20300
C3996       C  0.01814339  0.22428135  0.75504546     0.02500
C3997       C  0.99931989  0.19999429  0.74977516    -0.22800
C3998       C  0.98291507  0.21415932  0.74522586     0.11700
S3999       S  0.96256176  0.26219933  0.73991406    -0.06500
C4000       C  0.95077585  0.21733584  0.73637399    -0.10000
C4001       C  0.96351602  0.19490706  0.73976885    -0.26600
S4002       S  0.03912412  0.21203074  0.76112965    -0.03800
C4003       C  0.05233284  0.25748340  0.76457923    -0.17200
C4004       C  0.04062050  0.28057073  0.76112990    -0.15200
H4005       H  0.00607234  0.30411298  0.75167550     0.20100
H4006       H  0.99741904  0.17120613  0.74925463     0.16200
H4007       H  0.95886502  0.16600233  0.73832090     0.18700
H4008       H  0.04601825  0.30978872  0.76254826     0.12000
C4009       C  0.54196519  0.14351627  0.62521743     0.15900
C4010       C  0.56613249  0.12752928  0.62690628    -0.33100
C4011       C  0.60055504  0.13892247  0.62332783     0.20300
C4012       C  0.61049660  0.16500952  0.61827452     0.02500
C4013       C  0.58599523  0.18066788  0.61653331    -0.22800
C4014       C  0.55152406  0.16933802  0.62013234     0.11700
S4015       S  0.49980337  0.13420189  0.62912074    -0.06500
C4016       C  0.49461139  0.16528455  0.62384063    -0.10000
C4017       C  0.52423722  0.18185948  0.61928904    -0.26600
S4018       S  0.65461888  0.17656202  0.61473580    -0.03800
C4019       C  0.65967648  0.14597287  0.62014293    -0.17200
C4020       C  0.62846729  0.12766034  0.62439618    -0.15200
H4021       H  0.55873247  0.10754092  0.63089769     0.20100
H4022       H  0.59376886  0.20121144  0.61261273     0.16200
H4023       H  0.52593186  0.20217673  0.61562110     0.18700
H4024       H  0.62681726  0.10803970  0.62818172     0.12000
C4025       C  0.05588138  0.16423400  0.62105941     0.15900
C4026       C  0.09437821  0.17668020  0.61882903    -0.33100
C4027       C  0.11990787  0.17032016  0.62271104     0.20300
C4028       C  0.10776938  0.15251039  0.62858782     0.02500
C4029       C  0.06901387  0.13989961  0.63082729    -0.22800
C4030       C  0.04324576  0.14610686  0.62690769     0.11700
S4031       S  0.02120622  0.16994753  0.61700990    -0.06500
C4032       C  0.98872582  0.14764305  0.62322856    -0.10000
C4033       C  0.00439139  0.13625544  0.62818745    -0.26600
S4034       S  0.14335055  0.14706205  0.63251345    -0.03800
C4035       C  0.17453586  0.16850578  0.62611304    -0.17200
C4036       C  0.15812128  0.17962634  0.62126562    -0.15200
H4037       H  0.10397779  0.19063897  0.61424534     0.20100
H4038       H  0.05937628  0.12578734  0.63539790     0.16200
H4039       H  0.98855602  0.12216499  0.63249325     0.18700
H4040       H  0.17299894  0.19300873  0.61686205     0.12000
C4041       C  0.83524147  0.36687393  0.61734817     0.15900
C4042       C  0.82864003  0.39773330  0.61535082    -0.33100
C4043       C  0.84981965  0.43468457  0.61845354     0.20300
C4044       C  0.87670454  0.44075553  0.62326059     0.02500
C4045       C  0.88387485  0.41021804  0.62516046    -0.22800
C4046       C  0.86230306  0.37317822  0.62213680     0.11700
S4047       S  0.81071014  0.31907703  0.61450961    -0.06500
C4048       C  0.83701189  0.30748924  0.61987467    -0.10000
C4049       C  0.86358119  0.33933406  0.62358807    -0.26600
S4050       S  0.89772844  0.48675641  0.62669470    -0.03800
C4051       C  0.87017025  0.49823227  0.62159830    -0.17200
C4052       C  0.84610251  0.46772946  0.61744589    -0.15200
H4053       H  0.80719532  0.39285098  0.61166529     0.20100
H4054       H  0.90453822  0.41479199  0.62895904     0.16200
H4055       H  0.88237570  0.33767317  0.62723816     0.18700
H4056       H  0.82622556  0.46928467  0.61398816     0.12000
C4057       C  0.84458950  0.87385230  0.62843689     0.15900
C4058       C  0.85203620  0.91212410  0.63012998    -0.33100
C4059       C  0.83320086  0.92884288  0.62657475     0.20300
C4060       C  0.80792106  0.90835613  0.62158755     0.02500
C4061       C  0.80045924  0.87017751  0.61990684    -0.22800
C4062       C  0.81949261  0.85366093  0.62342020     0.11700
S4063       S  0.86513222  0.84840059  0.63200962    -0.06500
C4064       C  0.83993404  0.81043139  0.62661641    -0.10000
C4065       C  0.81675833  0.81749477  0.62235993    -0.26600
S4066       S  0.78877957  0.93410997  0.61776082    -0.03800
C4067       C  0.81532790  0.97323583  0.62289542    -0.17200
C4068       C  0.83743963  0.96602436  0.62736231    -0.15200
H4069       H  0.87197062  0.92834582  0.63399497     0.20100
H4070       H  0.78104528  0.85421422  0.61597503     0.16200
H4071       H  0.79924748  0.79743233  0.61858334     0.18700
H4072       H  0.85630181  0.98720349  0.63092436     0.12000
C4073       C  0.84651805  0.17030061  0.66085600     0.15900
C4074       C  0.84162094  0.18360427  0.66675306    -0.33100
C4075       C  0.82882130  0.15643849  0.67177609     0.20300
C4076       C  0.82131457  0.11767093  0.67096924     0.02500
C4077       C  0.82640524  0.10433947  0.66505827    -0.22800
C4078       C  0.83927981  0.13163777  0.66002138     0.11700
S4079       S  0.86008468  0.19845350  0.65416821    -0.06500
C4080       C  0.85618759  0.15790838  0.65013105    -0.10000
C4081       C  0.84510062  0.12437890  0.65386866    -0.26600
S4082       S  0.80804021  0.09011198  0.67774862    -0.03800
C4083       C  0.81309253  0.13142154  0.68173499    -0.17200
C4084       C  0.82384062  0.16441100  0.67791219    -0.15200
H4085       H  0.84751521  0.21388783  0.66739536     0.20100
H4086       H  0.82076148  0.07413295  0.66442403     0.16200
H4087       H  0.83988963  0.09579789  0.65213206     0.18700
H4088       H  0.83028525  0.19350453  0.67959862     0.12000
C4089       C  0.68074465  0.08798822  0.58749123     0.15900
C4090       C  0.65971172  0.09276808  0.58245150    -0.33100
C4091       C  0.64269714  0.06217871  0.57790571     0.20300
C4092       C  0.64656583  0.02846840  0.57837357     0.02500
C4093       C  0.66776141  0.02386251  0.58338185    -0.22800
C4094       C  0.68473616  0.05433328  0.58792325     0.11700
S4095       S  0.70331684  0.12133243  0.59350875    -0.06500
C4096       C  0.71873301  0.08984946  0.59663080    -0.10000
C4097       C  0.70644589  0.05518378  0.59314438    -0.26600
S4098       S  0.62340138  0.99439435  0.57247661    -0.03800
C4099       C  0.60798428  0.02557565  0.56930261    -0.17200
C4100       C  0.62071502  0.06081806  0.57268660    -0.15200
H4101       H  0.65661729  0.11907084  0.58210610     0.20100
H4102       H  0.67076229  0.99751849  0.58373411     0.16200
H4103       H  0.71307179  0.03185869  0.59435247     0.18700
H4104       H  0.61409839  0.08407503  0.57141705     0.12000
loop_ 
_geom_bond_atom_site_label_1 
_geom_bond_atom_site_label_2 
_geom_bond_distance 
_geom_bond_site_symmetry_2 
_ccdc_geom_bond_type 
Zr1           O2   2.441       .  S
Zr1           O3   2.412       .  S
Zr1           O4   2.431       .  S
Zr1           O7   2.433       .  S
Zr1           O9   2.383       .  S
Zr1          O10   2.380       .  S
Zr1          O11   2.398       .  S
Zr1          O12   2.390       .  S
O2           H58   0.990       .  S
O2           H66   0.990       .  S
O3           C23   1.280       .  A
O4           C25   1.284       .  A
O5          Zr15   2.427       .  S
O5           C24   1.284       .  A
O6          Zr14   2.460       .  S
O6           C25   1.290       .  A
O7           C24   1.285       .  A
O8          Zr16   2.432       .  S
O8           C23   1.284       .  A
O9          Zr14   2.389       .  S
O9          Zr16   2.367       .  S
O10         Zr15   2.389       .  S
O10         Zr16   2.375       .  S
O10          H45   0.964       .  S
O11         Zr14   2.399       .  S
O11         Zr31   2.385       .  S
O11          H48   0.966       .  S
O12         Zr15   2.388       .  S
O12         Zr31   2.377       .  S
Zr13         O38   2.445       .  S
Zr13         O32   2.471       .  S
Zr13         O40   2.461       .  S
Zr13         O28   2.435       .  S
Zr13         O19   2.393       .  S
Zr13         O20   2.426       .  S
Zr13         O21   2.385       .  S
Zr13         O22   2.386       .  S
Zr14         O33   2.436       .  S
Zr14         O26   2.436       .  S
Zr14         O27   2.443       .  S
Zr14         O20   2.406       .  S
Zr14         O21   2.397       .  S
Zr15         O17   2.435       .  S
Zr15         O39   2.443       .  S
Zr15         O41   2.427       .  S
Zr15         O19   2.380       .  S
Zr15         O22   2.393       .  S
Zr16         O42   2.436       .  S
Zr16         O43   2.435       .  S
Zr16         O18   2.434       .  S
Zr16         O19   2.381       .  S
Zr16         O20   2.410       .  S
O17          H54   0.990       .  S
O18          H49   0.990       .  S
O18          H63   0.990       .  S
O20          H46   0.966       .  S
O21         Zr31   2.378       .  S
O22         Zr31   2.397       .  S
O22          H47   0.967       .  S
C23        C4019   1.469       .  S
C24        C4048   1.473       .  S
C25        C4096   1.485       .  S
O26          H62   0.990       .  S
O27          C29   1.286       .  A
O28          C29   1.283       .  A
C29        C4067   1.480   1_545  S
O30         Zr31   2.438       .  S
O30          H59   0.990       .  S
Zr31         O34   2.437       .  S
Zr31         O35   2.436       .  S
Zr31         O36   2.386       .  S
O32          C37   1.289       .  A
O33          H50   0.990       .  S
O33          H65   0.990       .  S
O34          H51   0.990       .  S
O35          H55   0.990       .  S
O35          H64   0.990       .  S
O36          C37   1.275       .  A
C37        C4032   1.475       .  S
O38          H57   0.991       .  S
O38          H61   0.991       .  S
O39          H53   0.990       .  S
O39          H60   0.990       .  S
O40          C44   1.289       .  A
O41          C44   1.284       .  A
O42          H52   0.990       .  S
O43          H56   0.990       .  S
C44        C4080   1.478       .  S
Zr67         O68   2.443       .  S
Zr67         O69   2.462       .  S
Zr67         O70   2.464       .  S
Zr67         O73   2.421       .  S
Zr67         O75   2.379       .  S
Zr67         O76   2.389       .  S
Zr67         O77   2.409       .  S
Zr67         O78   2.417       .  S
O68         H124   0.990       .  S
O68         H132   0.991       .  S
O69          C89   1.288       .  A
O70          C91   1.289       .  A
O71         Zr81   2.453       .  S
O71          C90   1.289       .  A
O72         Zr80   2.420       .  S
O72          C91   1.280       .  A
O73          C90   1.282       .  A
O74         Zr82   2.401       .  S
O74          C89   1.279       .  A
O75         Zr80   2.391       .  S
O75         Zr82   2.389       .  S
O76         Zr81   2.389       .  S
O76         Zr82   2.377       .  S
O76         H111   0.966       .  S
O77         Zr80   2.392       .  S
O77         Zr97   2.388       .  S
O77         H114   0.964       .  S
O78         Zr81   2.391       .  S
O78         Zr97   2.402       .  S
Zr79        O104   2.442       .  S
Zr79         O98   2.415       .  S
Zr79        O106   2.451       .  S
Zr79         O94   2.465       .  S
Zr79         O85   2.404       .  S
Zr79         O86   2.400       .  S
Zr79         O87   2.380       .  S
Zr79         O88   2.395       .  S
Zr80         O99   2.439       .  S
Zr80         O92   2.434       .  S
Zr80         O93   2.408       .  S
Zr80         O86   2.396       .  S
Zr80         O87   2.384       .  S
Zr81         O83   2.436       .  S
Zr81        O105   2.437       .  S
Zr81        O107   2.449       .  S
Zr81         O85   2.399       .  S
Zr81         O88   2.399       .  S
Zr82        O108   2.436       .  S
Zr82        O109   2.436       .  S
Zr82         O84   2.435       .  S
Zr82         O85   2.394       .  S
Zr82         O86   2.379       .  S
O83         H120   0.990       .  S
O84         H115   0.990       .  S
O84         H129   0.990       .  S
O86         H112   0.966       .  S
O87         Zr97   2.370       .  S
O88         Zr97   2.366       .  S
O88         H113   0.965       .  S
C89        C3987   1.479       .  S
C90        C3955   1.479       .  S
C91        C4083   1.478       .  S
O92         H128   0.990       .  S
O93          C95   1.281       .  A
O94          C95   1.291       .  A
C95        C3936   1.477       .  S
O96         Zr97   2.439       .  S
O96         H125   0.990       .  S
Zr97        O100   2.436       .  S
Zr97        O101   2.438       .  S
Zr97        O102   2.437       .  S
O98         C103   1.282       .  A
O99         H116   0.990       .  S
O99         H131   0.990       .  S
O100        H117   0.990       .  S
O101        H121   0.990   1_655  S
O101        H130   0.990       .  S
O102        C103   1.284       .  A
C103       C3971   1.471   1_655  S
O104        H123   0.990       .  S
O104        H127   0.990       .  S
O105        H119   0.990       .  S
O105        H126   0.990       .  S
O106        C110   1.289       .  A
O107        C110   1.289       .  A
O108        H118   0.990       .  S
O109        H122   0.990       .  S
C110       C4000   1.486       .  S
Zr133       O134   2.441       .  S
Zr133       O135   2.417       .  S
Zr133       O136   2.440       .  S
Zr133       O139   2.433       .  S
Zr133       O141   2.382       .  S
Zr133       O142   2.386       .  S
Zr133       O143   2.401       .  S
Zr133       O144   2.397       .  S
O134        H190   0.991       .  S
O134        H198   0.990       .  S
O135        C155   1.281       .  A
O136        C157   1.285       .  A
O137       Zr147   2.424       .  S
O137        C156   1.284       .  A
O138       Zr146   2.440       .  S
O138        C157   1.286       .  A
O139        C156   1.284       .  A
O140       Zr148   2.434       .  S
O140        C155   1.285       .  A
O141       Zr146   2.386       .  S
O141       Zr148   2.368       .  S
O142       Zr147   2.390       .  S
O142       Zr148   2.380       .  S
O142        H177   0.964       .  S
O143       Zr146   2.398       .  S
O143       Zr163   2.397       .  S
O143        H180   0.966       .  S
O144       Zr147   2.390       .  S
O144       Zr163   2.385       .  S
Zr145       O170   2.443       .  S
Zr145       O164   2.460       .  S
Zr145       O172   2.471       .  S
Zr145       O160   2.436       .  S
Zr145       O151   2.391       .  S
Zr145       O152   2.425       .  S
Zr145       O153   2.390       .  S
Zr145       O154   2.384       .  S
Zr146       O165   2.435       .  S
Zr146       O158   2.436       .  S
Zr146       O159   2.425       .  S
Zr146       O152   2.402       .  S
Zr146       O153   2.399       .  S
Zr147       O149   2.437       .  S
Zr147       O171   2.437       .  S
Zr147       O173   2.427       .  S
Zr147       O151   2.377       .  S
Zr147       O154   2.390       .  S
Zr148       O174   2.435       .  S
Zr148       O175   2.436       .  S
Zr148       O150   2.436       .  S
Zr148       O151   2.384       .  S
Zr148       O152   2.405       .  S
O149        H186   0.990       .  S
O150        H181   0.990       .  S
O150        H195   0.990       .  S
O152        H178   0.968       .  S
O153       Zr163   2.380       .  S
O154       Zr163   2.395       .  S
O154        H179   0.964       .  S
C155       C4051   1.471       .  S
C156       C3888   1.472       .  S
C157       C3920   1.482       .  S
O158        H194   0.990       .  S
O159        C161   1.283       .  A
O160        C161   1.283       .  A
C161       C3872   1.472   1_655  S
O162       Zr163   2.441       .  S
O162        H191   0.990       .  S
Zr163       O166   2.439       .  S
Zr163       O167   2.440       .  S
Zr163       O168   2.401       .  S
O164        C169   1.287       .  A
O165        H182   0.990       .  S
O165        H197   0.990       .  S
O166        H183   0.990       .  S
O167        H187   0.990       .  S
O167        H196   0.990       .  S
O168        C169   1.279       .  A
C169       C4064   1.478       .  S
O170        H189   0.991       .  S
O170        H193   0.990       .  S
O171        H185   0.990       .  S
O171        H192   0.990       .  S
O172        C176   1.291       .  A
O173        C176   1.284       .  A
O174        H184   0.990       .  S
O175        H188   0.990       .  S
C176       C3904   1.485       .  S
Zr199       O200   2.443       .  S
Zr199       O201   2.470       .  S
Zr199       O202   2.465       .  S
Zr199       O205   2.448       .  S
Zr199       O207   2.385       .  S
Zr199       O208   2.384       .  S
Zr199       O209   2.420       .  S
Zr199       O210   2.422       .  S
O200        H256   0.990       .  S
O200        H264   0.990       .  S
O201        C221   1.289       .  A
O202        C223   1.289       .  A
O203       Zr213   2.405       .  S
O203        C222   1.280       .  A
O204       Zr212   2.430       .  S
O204        C223   1.284       .  A
O205        C222   1.287       .  A
O206       Zr214   2.392       .  S
O206        C221   1.276       .  A
O207       Zr212   2.398       .  S
O207       Zr214   2.387       .  S
O208       Zr213   2.389       .  S
O208       Zr214   2.370       .  S
O208        H243   0.966       .  S
O209       Zr212   2.403       .  S
O209       Zr229   2.387       .  S
O209        H246   0.964       .  S
O210       Zr213   2.394       .  S
O210       Zr229   2.411       .  S
Zr211       O236   2.441       .  S
Zr211       O230   2.414       .  S
Zr211       O238   2.437       .  S
Zr211       O226   2.428       .  S
Zr211       O217   2.393       .  S
Zr211       O218   2.399       .  S
Zr211       O219   2.382       .  S
Zr211       O220   2.380       .  S
Zr212       O231   2.439       .  S
Zr212       O224   2.433       .  S
Zr212       O225   2.432       .  S
Zr212       O218   2.395       .  S
Zr212       O219   2.382       .  S
Zr213       O215   2.435       .  S
Zr213       O237   2.434       .  S
Zr213       O239   2.428       .  S
Zr213       O217   2.388       .  S
Zr213       O220   2.381       .  S
Zr214       O240   2.435       .  S
Zr214       O241   2.435       .  S
Zr214       O216   2.436       .  S
Zr214       O217   2.392       .  S
Zr214       O218   2.376       .  S
O215        H252   0.990       .  S
O216        H247   0.990       .  S
O216        H261   0.990       .  S
O218        H244   0.967       .  S
O219       Zr229   2.366       .  S
O220       Zr229   2.359       .  S
O220        H245   0.963       .  S
C221       C3952   1.479       .  S
C222       C3827   1.472       .  S
C223       C3907   1.483       .  S
O224        H260   0.990       .  S
O225        C227   1.286       .  A
O226        C227   1.284       .  A
C227       C3840   1.470       .  S
O228       Zr229   2.437       .  S
O228        H257   0.990       .  S
Zr229       O232   2.436       .  S
Zr229       O233   2.439       .  S
Zr229       O234   2.445       .  S
O230        C235   1.281       .  A
O231        H248   0.990       .  S
O231        H263   0.990       .  S
O232        H249   0.990       .  S
O233        H253   0.990       .  S
O233        H262   0.990       .  S
O234        C235   1.287       .  A
C235       C3939   1.473       .  S
O236        H255   0.990       .  S
O236        H259   0.990       .  S
O237        H251   0.990       .  S
O237        H258   0.990       .  S
O238        C242   1.287       .  A
O239        C242   1.284       .  A
O240        H250   0.990       .  S
O241        H254   0.990       .  S
C242       C3856   1.472       .  S
Zr265       O266   2.438       .  S
Zr265       O267   2.429       .  S
Zr265       O268   2.438       .  S
Zr265       O271   2.442       .  S
Zr265       O273   2.384       .  S
Zr265       O274   2.383       .  S
Zr265       O275   2.404       .  S
Zr265       O276   2.395       .  S
O266        H322   0.990       .  S
O266        H330   0.990       .  S
O267        C287   1.283       .  A
O268        C289   1.285       .  A
O269       Zr279   2.405       .  S
O269        C288   1.280       .  A
O270       Zr278   2.442       .  S
O270        C289   1.287       .  A
O271        C288   1.287       .  A
O272       Zr280   2.432       .  S
O272        C287   1.284       .  A
O273       Zr278   2.395       .  S
O273       Zr280   2.369       .  S
O274       Zr279   2.391       .  S
O274       Zr280   2.382       .  S
O274        H309   0.963       .  S
O275       Zr278   2.399       .  S
O275       Zr295   2.397       .  S
O275        H312   0.967       .  S
O276       Zr279   2.383       .  S
O276       Zr295   2.381       .  S
Zr277       O302   2.444       .  S
Zr277       O296   2.448       .  S
Zr277       O304   2.454       .  S
Zr277       O292   2.418       .  S
Zr277       O283   2.383       .  S
Zr277       O284   2.422       .  S
Zr277       O285   2.383       .  S
Zr277       O286   2.382       .  S
Zr278       O297   2.437       .  S
Zr278       O290   2.436       .  S
Zr278       O291   2.436       .  S
Zr278       O284   2.403       .  S
Zr278       O285   2.392       .  S
Zr279       O281   2.438       .  S
Zr279       O303   2.439       .  S
Zr279       O305   2.419       .  S
Zr279       O283   2.371       .  S
Zr279       O286   2.388       .  S
Zr280       O306   2.435       .  S
Zr280       O307   2.434       .  S
Zr280       O282   2.436       .  S
Zr280       O283   2.378       .  S
Zr280       O284   2.408       .  S
O281        H318   0.990       .  S
O282        H313   0.990       .  S
O282        H327   0.990       .  S
O284        H310   0.965       .  S
O285       Zr295   2.374       .  S
O286       Zr295   2.394       .  S
O286        H311   0.965       .  S
C287       C3891   1.473       .  S
C288       C4016   1.469       .  S
C289       C3808   1.481       .  S
O290        H326   0.990       .  S
O291        C293   1.286       .  A
O292        C293   1.279       .  A
C293       C4035   1.470       .  S
O294       Zr295   2.439       .  S
O294        H323   0.990       .  S
Zr295       O298   2.437       .  S
Zr295       O299   2.439       .  S
Zr295       O300   2.402       .  S
O296        C301   1.285       .  A
O297        H314   0.990       .  S
O297        H329   0.990       .  S
O298        H315   0.990       .  S
O299        H319   0.990       .  S
O299        H328   0.990       .  S
O300        C301   1.279       .  A
C301       C3875   1.473       .  S
O302        H321   0.990       .  S
O302        H325   0.990       .  S
O303        H317   0.990       .  S
O303        H324   0.990       .  S
O304        C308   1.288       .  A
O305        C308   1.283       .  A
O306        H316   0.990       .  S
O307        H320   0.990       .  S
C308       C3792   1.473       .  S
Zr331       O332   2.441       .  S
Zr331       O333   2.433       .  S
Zr331       O334   2.444       .  S
Zr331       O337   2.419       .  S
Zr331       O339   2.378       .  S
Zr331       O340   2.385       .  S
Zr331       O341   2.403       .  S
Zr331       O342   2.411       .  S
O332        H388   0.991       .  S
O332        H396   0.990       .  S
O333        C353   1.282       .  A
O334        C355   1.285       .  A
O335       Zr345   2.445       .  S
O335        C354   1.288       .  A
O336       Zr344   2.417       .  S
O336        C355   1.281       .  A
O337        C354   1.282       .  A
O338       Zr346   2.412       .  S
O338        C353   1.281       .  A
O339       Zr344   2.390       .  S
O339       Zr346   2.385       .  S
O340       Zr345   2.392       .  S
O340       Zr346   2.376       .  S
O340        H375   0.966       .  S
O341       Zr344   2.397       .  S
O341       Zr361   2.384       .  S
O341        H378   0.963       .  S
O342       Zr345   2.392       .  S
O342       Zr361   2.395       .  S
Zr343       O368   2.444       .  S
Zr343       O362   2.433       .  S
Zr343       O370   2.430       .  S
Zr343       O358   2.449       .  S
Zr343       O349   2.404       .  S
Zr343       O350   2.400       .  S
Zr343       O351   2.377       .  S
Zr343       O352   2.389       .  S
Zr344       O363   2.439       .  S
Zr344       O356   2.436       .  S
Zr344       O357   2.413       .  S
Zr344       O350   2.397       .  S
Zr344       O351   2.386       .  S
Zr345       O347   2.435       .  S
Zr345       O369   2.433       .  S
Zr345       O371   2.444       .  S
Zr345       O349   2.392       .  S
Zr345       O352   2.393       .  S
Zr346       O372   2.439       .  S
Zr346       O373   2.436       .  S
Zr346       O348   2.436       .  S
Zr346       O349   2.395       .  S
Zr346       O350   2.388       .  S
O347        H384   0.990       .  S
O348        H379   0.990       .  S
O348        H393   0.990       .  S
O350        H376   0.965       .  S
O351       Zr361   2.376       .  S
O352       Zr361   2.367       .  S
O352        H377   0.965       .  S
C353       C3824   1.470       .  S
C354       C3984   1.477       .  S
C355       C3795   1.471       .  S
O356        H392   0.990       .  S
O357        C359   1.283       .  A
O358        C359   1.287       .  A
C359       C3968   1.474       .  S
O360       Zr361   2.439       .  S
O360        H389   0.990       .  S
Zr361       O364   2.437       .  S
Zr361       O365   2.441   1_545  S
Zr361       O366   2.422       .  S
O362        C367   1.284   1_545  A
O363        H380   0.990       .  S
O363        H395   0.990       .  S
O364        H381   0.990       .  S
O365        H385   0.990       .  S
O365        H394   0.990       .  S
O366        C367   1.282   1_545  A
C367       C3843   1.472       .  S
O368        H387   0.990       .  S
O368        H391   0.990       .  S
O369        H383   0.990       .  S
O369        H390   0.990       .  S
O370        C374   1.285       .  A
O371        C374   1.287       .  A
O372        H382   0.990       .  S
O373        H386   0.990       .  S
C374       C3776   1.478       .  S
Zr397       O398   2.438       .  S
Zr397       O399   2.414       .  S
Zr397       O400   2.447       .  S
Zr397       O403   2.449       .  S
Zr397       O405   2.385       .  S
Zr397       O406   2.385       .  S
Zr397       O407   2.401       .  S
Zr397       O408   2.397       .  S
O398        H454   0.990       .  S
O398        H462   0.990       .  S
O399        C419   1.281       .  A
O400        C421   1.288       .  A
O401       Zr411   2.405       .  S
O401        C420   1.280       .  A
O402       Zr410   2.421       .  S
O402        C421   1.283       .  A
O403        C420   1.287       .  A
O404       Zr412   2.430       .  S
O404        C419   1.284       .  A
O405       Zr410   2.385       .  S
O405       Zr412   2.367       .  S
O406       Zr411   2.386       .  S
O406       Zr412   2.379       .  S
O406        H441   0.964       .  S
O407       Zr410   2.396       .  S
O407       Zr427   2.394       .  S
O407        H444   0.966       .  S
O408       Zr411   2.383       .  S
O408       Zr427   2.386       .  S
Zr409       O434   2.442       .  S
Zr409       O428   2.461       .  S
Zr409       O436   2.469       .  S
Zr409       O424   2.429       .  S
Zr409       O415   2.397       .  S
Zr409       O416   2.423       .  S
Zr409       O417   2.384       .  S
Zr409       O418   2.382       .  S
Zr410       O429   2.436       .  S
Zr410       O422   2.437       .  S
Zr410       O423   2.419       .  S
Zr410       O416   2.395       .  S
Zr410       O417   2.386       .  S
Zr411       O413   2.433       .  S
Zr411       O435   2.441       .  S
Zr411       O437   2.408       .  S
Zr411       O415   2.385       .  S
Zr411       O418   2.387       .  S
Zr412       O438   2.434       .  S
Zr412       O439   2.436       .  S
Zr412       O414   2.439       .  S
Zr412       O415   2.390       .  S
Zr412       O416   2.402       .  S
O413        H450   0.990       .  S
O414        H445   0.990       .  S
O414        H459   0.990       .  S
O416        H442   0.966       .  S
O417       Zr427   2.374       .  S
O418       Zr427   2.393       .  S
O418        H443   0.967       .  S
C419       C3731   1.468       .  S
C420       C3763   1.472       .  S
C421       C3680   1.476       .  S
O422        H458   0.990       .  S
O423        C425   1.283       .  A
O424        C425   1.283       .  A
C425       C3747   1.468       .  S
O426       Zr427   2.440       .  S
O426        H455   0.990       .  S
Zr427       O430   2.437       .  S
Zr427       O431   2.442       .  S
Zr427       O432   2.396       .  S
O428        C433   1.288       .  A
O429        H446   0.990       .  S
O429        H461   0.990       .  S
O430        H447   0.990       .  S
O431        H451   0.990       .  S
O431        H460   0.989       .  S
O432        C433   1.277       .  A
C433       C3715   1.476       .  S
O434        H453   0.990       .  S
O434        H457   0.990       .  S
O435        H449   0.990       .  S
O435        H456   0.990       .  S
O436        C440   1.289       .  A
O437        C440   1.279       .  A
O438        H448   0.990       .  S
O439        H452   0.990       .  S
C440       C3696   1.475       .  S
Zr463       O464   2.443       .  S
Zr463       O465   2.446       .  S
Zr463       O466   2.476       .  S
Zr463       O469   2.431       .  S
Zr463       O471   2.380       .  S
Zr463       O472   2.392       .  S
Zr463       O473   2.405       .  S
Zr463       O474   2.414       .  S
O464        H520   0.990       .  S
O464        H528   0.990       .  S
O465        C485   1.285       .  A
O466        C487   1.291       .  A
O467       Zr477   2.427       .  S
O467        C486   1.284       .  A
O468       Zr476   2.408       .  S
O468        C487   1.279       .  A
O469        C486   1.284       .  A
O470       Zr478   2.410       .  S
O470        C485   1.280       .  A
O471       Zr476   2.390       .  S
O471       Zr478   2.386       .  S
O472       Zr477   2.394       .  S
O472       Zr478   2.376       .  S
O472        H507   0.966       .  S
O473       Zr476   2.397       .  S
O473       Zr493   2.380       .  S
O473        H510   0.963       .  S
O474       Zr477   2.398       .  S
O474       Zr493   2.393       .  S
Zr475       O500   2.441       .  S
Zr475       O494   2.418       .  S
Zr475       O502   2.432       .  S
Zr475       O490   2.440       .  S
Zr475       O481   2.400       .  S
Zr475       O482   2.402       .  S
Zr475       O483   2.377       .  S
Zr475       O484   2.384       .  S
Zr476       O495   2.438       .  S
Zr476       O488   2.434       .  S
Zr476       O489   2.410       .  S
Zr476       O482   2.391       .  S
Zr476       O483   2.380       .  S
Zr477       O479   2.434       .  S
Zr477       O501   2.435       .  S
Zr477       O503   2.457       .  S
Zr477       O481   2.390       .  S
Zr477       O484   2.384       .  S
Zr478       O504   2.435       .  S
Zr478       O505   2.436       .  S
Zr478       O480   2.438       .  S
Zr478       O481   2.397       .  S
Zr478       O482   2.389       .  S
O479        H516   0.990       .  S
O480        H511   0.990       .  S
O480        H525   0.990       .  S
O482        H508   0.965       .  S
O483       Zr493   2.370       .  S
O484       Zr493   2.368       .  S
O484        H509   0.964       .  S
C485       C3648   1.475       .  S
C486       C3635   1.473       .  S
C487       C3699   1.476       .  S
O488        H524   0.990       .  S
O489        C491   1.281       .  A
O490        C491   1.286       .  A
C491       C3619   1.468       .  S
O492       Zr493   2.438       .  S
O492        H521   0.990       .  S
Zr493       O496   2.437       .  S
Zr493       O497   2.439       .  S
Zr493       O498   2.421       .  S
O494        C499   1.282       .  A
O495        H512   0.990       .  S
O495        H527   0.990       .  S
O496        H513   0.990       .  S
O497        H517   0.990   1_455  S
O497        H526   0.990       .  S
O498        C499   1.282       .  A
C499       C3667   1.465   1_455  S
O500        H519   0.990       .  S
O500        H523   0.990       .  S
O501        H515   0.990       .  S
O501        H522   0.990       .  S
O502        C506   1.286       .  A
O503        C506   1.290       .  A
O504        H514   0.990       .  S
O505        H518   0.990       .  S
C506       C4003   1.485       .  S
Zr529       O530   2.439       .  S
Zr529       O531   2.421       .  S
Zr529       O532   2.430       .  S
Zr529       O535   2.427       .  S
Zr529       O537   2.375       .  S
Zr529       O538   2.381       .  S
Zr529       O539   2.400       .  S
Zr529       O540   2.395       .  S
O530        H586   0.990       .  S
O530        H594   0.990       .  S
O531        C551   1.282       .  A
O532        C553   1.284       .  A
O533       Zr543   2.419       .  S
O533        C552   1.283       .  A
O534       Zr542   2.457       .  S
O534        C553   1.289       .  A
O535        C552   1.283       .  A
O536       Zr544   2.428       .  S
O536        C551   1.283       .  A
O537       Zr542   2.390       .  S
O537       Zr544   2.367       .  S
O538       Zr543   2.391       .  S
O538       Zr544   2.379       .  S
O538        H573   0.964       .  S
O539       Zr542   2.403       .  S
O539       Zr559   2.397       .  S
O539        H576   0.967       .  S
O540       Zr543   2.387       .  S
O540       Zr559   2.382       .  S
Zr541       O566   2.443       .  S
Zr541       O560   2.459       .  S
Zr541       O568   2.470       .  S
Zr541       O556   2.427       .  S
Zr541       O547   2.391       .  S
Zr541       O548   2.425       .  S
Zr541       O549   2.387       .  S
Zr541       O550   2.383       .  S
Zr542       O561   2.435       .  S
Zr542       O554   2.434       .  S
Zr542       O555   2.442       .  S
Zr542       O548   2.408       .  S
Zr542       O549   2.399       .  S
Zr543       O545   2.435       .  S
Zr543       O567   2.439       .  S
Zr543       O569   2.428       .  S
Zr543       O547   2.380       .  S
Zr543       O550   2.391       .  S
Zr544       O570   2.437       .  S
Zr544       O571   2.435       .  S
Zr544       O546   2.437       .  S
Zr544       O547   2.388       .  S
Zr544       O548   2.405       .  S
O545        H582   0.990       .  S
O546        H577   0.990       .  S
O546        H591   0.990       .  S
O548        H574   0.967       .  S
O549       Zr559   2.378       .  S
O550       Zr559   2.395       .  S
O550        H575   0.965       .  S
C551       C3571   1.470       .  S
C552       C3728   1.468       .  S
C553       C3552   1.484       .  S
O554        H590   0.990       .  S
O555        C557   1.287       .  A
O556        C557   1.281       .  A
C557       C3712   1.476       .  S
O558       Zr559   2.441       .  S
O558        H587   0.990       .  S
Zr559       O562   2.439       .  S
Zr559       O563   2.442       .  S
Zr559       O564   2.395       .  S
O560        C565   1.287       .  A
O561        H578   0.990       .  S
O561        H593   0.990       .  S
O562        H579   0.990       .  S
O563        H583   0.990       .  S
O563        H592   0.990       .  S
O564        C565   1.277       .  A
C565       C3584   1.475       .  S
O566        H585   0.991       .  S
O566        H589   0.991       .  S
O567        H581   0.990       .  S
O567        H588   0.990       .  S
O568        C572   1.291       .  A
O569        C572   1.284       .  A
O570        H580   0.990       .  S
O571        H584   0.990       .  S
C572       C3603   1.485       .  S
Zr595       O596   2.441       .  S
Zr595       O597   2.463       .  S
Zr595       O598   2.468       .  S
Zr595       O601   2.432       .  S
Zr595       O603   2.385       .  S
Zr595       O604   2.389       .  S
Zr595       O605   2.411       .  S
Zr595       O606   2.419       .  S
O596        H652   0.990       .  S
O596        H660   0.990       .  S
O597        C617   1.288       .  A
O598        C619   1.289       .  A
O599       Zr609   2.431       .  S
O599        C618   1.284       .  A
O600       Zr608   2.416       .  S
O600        C619   1.281       .  A
O601        C618   1.284       .  A
O602       Zr610   2.396       .  S
O602        C617   1.277       .  A
O603       Zr608   2.396       .  S
O603       Zr610   2.388       .  S
O604       Zr609   2.392       .  S
O604       Zr610   2.376       .  S
O604        H639   0.964       .  S
O605       Zr608   2.399       .  S
O605       Zr625   2.385       .  S
O605        H642   0.964       .  S
O606       Zr609   2.401       .  S
O606       Zr625   2.403       .  S
Zr607       O632   2.439       .  S
Zr607       O626   2.407       .  S
Zr607       O634   2.418       .  S
Zr607       O622   2.422       .  S
Zr607       O613   2.395       .  S
Zr607       O614   2.397       .  S
Zr607       O615   2.377       .  S
Zr607       O616   2.381       .  S
Zr608       O627   2.440       .  S
Zr608       O620   2.435       .  S
Zr608       O621   2.421       .  S
Zr608       O614   2.394       .  S
Zr608       O615   2.382       .  S
Zr609       O611   2.435       .  S
Zr609       O633   2.437       .  S
Zr609       O635   2.452       .  S
Zr609       O613   2.394       .  S
Zr609       O616   2.386       .  S
Zr610       O636   2.435       .  S
Zr610       O637   2.437       .  S
Zr610       O612   2.438       .  S
Zr610       O613   2.396       .  S
Zr610       O614   2.383       .  S
O611        H648   0.990       .  S
O612        H643   0.990       .  S
O612        H657   0.990       .  S
O614        H640   0.966       .  S
O615       Zr625   2.368       .  S
O616       Zr625   2.361       .  S
O616        H641   0.964       .  S
C617       C3523   1.477       .  S
C618       C3651   1.475       .  S
C619       C3600   1.481       .  S
O620        H656   0.990       .  S
O621        C623   1.284       .  A
O622        C623   1.283       .  A
C623       C3664   1.465       .  S
O624       Zr625   2.440       .  S
O624        H653   0.990       .  S
Zr625       O628   2.437       .  S
Zr625       O629   2.439       .  S
Zr625       O630   2.436       .  S
O626        C631   1.279       .  A
O627        H644   0.990       .  S
O627        H659   0.990       .  S
O628        H645   0.990       .  S
O629        H649   0.990       .  S
O629        H658   0.990       .  S
O630        C631   1.285       .  A
C631       C3539   1.468       .  S
O632        H651   0.990       .  S
O632        H655   0.990       .  S
O633        H647   0.990       .  S
O633        H654   0.990       .  S
O634        C638   1.283       .  A
O635        C638   1.288       .  A
O636        H646   0.990       .  S
O637        H650   0.990       .  S
C638       C3859   1.474       .  S
Zr661       O662   2.439       .  S
Zr661       O663   2.418       .  S
Zr661       O664   2.424       .  S
Zr661       O667   2.431       .  S
Zr661       O669   2.381       .  S
Zr661       O670   2.383       .  S
Zr661       O671   2.402       .  S
Zr661       O672   2.397       .  S
O662        H718   0.990       .  S
O662        H726   0.990       .  S
O663        C683   1.280       .  A
O664        C685   1.284       .  A
O665       Zr675   2.418       .  S
O665        C684   1.282       .  A
O666       Zr674   2.434       .  S
O666        C685   1.285       .  A
O667        C684   1.284       .  A
O668       Zr676   2.432       .  S
O668        C683   1.285       .  A
O669       Zr674   2.388       .  S
O669       Zr676   2.357       .  S
O670       Zr675   2.393       .  S
O670       Zr676   2.379       .  S
O670        H705   0.964       .  S
O671       Zr674   2.403       .  S
O671       Zr691   2.391       .  S
O671        H708   0.966       .  S
O672       Zr675   2.388       .  S
O672       Zr691   2.386       .  S
Zr673       O698   2.443       .  S
Zr673       O692   2.454       .  S
Zr673       O700   2.440       .  S
Zr673       O688   2.419       .  S
Zr673       O679   2.385       .  S
Zr673       O680   2.424       .  S
Zr673       O681   2.378       .  S
Zr673       O682   2.386       .  S
Zr674       O693   2.434       .  S
Zr674       O686   2.434       .  S
Zr674       O687   2.438       .  S
Zr674       O680   2.397       .  S
Zr674       O681   2.390       .  S
Zr675       O677   2.435       .  S
Zr675       O699   2.438       .  S
Zr675       O701   2.432       .  S
Zr675       O679   2.368       .  S
Zr675       O682   2.390       .  S
Zr676       O702   2.437       .  S
Zr676       O703   2.435       .  S
Zr676       O678   2.435       .  S
Zr676       O679   2.372       .  S
Zr676       O680   2.417       .  S
O677        H714   0.990       .  S
O678        H709   0.990       .  S
O678        H723   0.990       .  S
O680        H706   0.965       .  S
O681       Zr691   2.379       .  S
O682       Zr691   2.397       .  S
O682        H707   0.966       .  S
C683       C3760   1.470       .  S
C684       C3568   1.470       .  S
C685       C3491   1.473       .  S
O686        H722   0.990       .  S
O687        C689   1.285       .  A
O688        C689   1.279       .  A
C689       C3587   1.473   1_455  S
O690       Zr691   2.439       .  S
O690        H719   0.990       .  S
Zr691       O694   2.437       .  S
Zr691       O695   2.440       .  S
Zr691       O696   2.393       .  S
O692        C697   1.285       .  A
O693        H710   0.990       .  S
O693        H725   0.990       .  S
O694        H711   0.990       .  S
O695        H715   0.990       .  S
O695        H724   0.990       .  S
O696        C697   1.277       .  A
C697       C3744   1.473       .  S
O698        H717   0.991       .  S
O698        H721   0.990       .  S
O699        H713   0.990       .  S
O699        H720   0.990       .  S
O700        C704   1.285       .  A
O701        C704   1.284       .  A
O702        H712   0.990       .  S
O703        H716   0.991       .  S
C704       C3504   1.468       .  S
Zr727       O728   2.444       .  S
Zr727       O729   2.442       .  S
Zr727       O730   2.436       .  S
Zr727       O733   2.410       .  S
Zr727       O735   2.377       .  S
Zr727       O736   2.385       .  S
Zr727       O737   2.407       .  S
Zr727       O738   2.412       .  S
O728        H784   0.991       .  S
O728        H792   0.990       .  S
O729        C749   1.284       .  A
O730        C751   1.284       .  A
O731       Zr741   2.438       .  S
O731        C750   1.287       .  A
O732       Zr740   2.421       .  S
O732        C751   1.281       .  A
O733        C750   1.279       .  A
O734       Zr742   2.399       .  S
O734        C749   1.278       .  A
O735       Zr740   2.390       .  S
O735       Zr742   2.387       .  S
O736       Zr741   2.393       .  S
O736       Zr742   2.374       .  S
O736        H771   0.965       .  S
O737       Zr740   2.392       .  S
O737       Zr757   2.377       .  S
O737        H774   0.963       .  S
O738       Zr741   2.391       .  S
O738       Zr757   2.402       .  S
Zr739       O764   2.444       .  S
Zr739       O758   2.402       .  S
Zr739       O766   2.437       .  S
Zr739       O754   2.447       .  S
Zr739       O745   2.396       .  S
Zr739       O746   2.396       .  S
Zr739       O747   2.380       .  S
Zr739       O748   2.386       .  S
Zr740       O759   2.438       .  S
Zr740       O752   2.435       .  S
Zr740       O753   2.401       .  S
Zr740       O746   2.401       .  S
Zr740       O747   2.385       .  S
Zr741       O743   2.436       .  S
Zr741       O765   2.436       .  S
Zr741       O767   2.440       .  S
Zr741       O745   2.401       .  S
Zr741       O748   2.387       .  S
Zr742       O768   2.436       .  S
Zr742       O769   2.435       .  S
Zr742       O744   2.436       .  S
Zr742       O745   2.394       .  S
Zr742       O746   2.378       .  S
O743        H780   0.990       .  S
O744        H775   0.990       .  S
O744        H789   0.990       .  S
O746        H772   0.966       .  S
O747       Zr757   2.370       .  S
O748       Zr757   2.365       .  S
O748        H773   0.964       .  S
C749       C3632   1.470       .  S
C750       C3520   1.471       .  S
C751       C3507   1.468       .  S
O752        H788   0.990       .  S
O753        C755   1.279       .  A
O754        C755   1.287       .  A
C755       C3536   1.467       .  S
O756       Zr757   2.438       .  S
O756        H785   0.990       .  S
Zr757       O760   2.438       .  S
Zr757       O761   2.437       .  S
Zr757       O762   2.432       .  S
O758        C763   1.279       .  A
O759        H776   0.990       .  S
O759        H791   0.990       .  S
O760        H777   0.990       .  S
O761        H781   0.990       .  S
O761        H790   0.990       .  S
O762        C763   1.284       .  A
C763       C3616   1.464       .  S
O764        H783   0.990       .  S
O764        H787   0.990       .  S
O765        H779   0.990       .  S
O765        H786   0.990       .  S
O766        C770   1.286       .  A
O767        C770   1.286       .  A
O768        H778   0.990       .  S
O769        H782   0.990       .  S
C770       C3779   1.478       .  S
Zr793       O794   2.440       .  S
Zr793       O795   2.404       .  S
Zr793       O796   2.439       .  S
Zr793       O799   2.438       .  S
Zr793       O801   2.383       .  S
Zr793       O802   2.386       .  S
Zr793       O803   2.395       .  S
Zr793       O804   2.392       .  S
O794        H850   0.991       .  S
O794        H858   0.990       .  S
O795        C815   1.278       .  A
O796        C817   1.286       .  A
O797       Zr807   2.417       .  S
O797        C816   1.283       .  A
O798       Zr806   2.438       .  S
O798        C817   1.286       .  A
O799        C816   1.285       .  A
O800       Zr808   2.443       .  S
O800        C815   1.286       .  A
O801       Zr806   2.389       .  S
O801       Zr808   2.365       .  S
O802       Zr807   2.389       .  S
O802       Zr808   2.374       .  S
O802        H837   0.964       .  S
O803       Zr806   2.398       .  S
O803       Zr823   2.384       .  S
O803        H840   0.967       .  S
O804       Zr807   2.390       .  S
O804       Zr823   2.375       .  S
Zr805       O830   2.442       .  S
Zr805       O824   2.475       .  S
Zr805       O832   2.462       .  S
Zr805       O820   2.444       .  S
Zr805       O811   2.399       .  S
Zr805       O812   2.428       .  S
Zr805       O813   2.384       .  S
Zr805       O814   2.384       .  S
Zr806       O825   2.434       .  S
Zr806       O818   2.434       .  S
Zr806       O819   2.432       .  S
Zr806       O812   2.401       .  S
Zr806       O813   2.394       .  S
Zr807       O809   2.437       .  S
Zr807       O831   2.440       .  S
Zr807       O833   2.425       .  S
Zr807       O811   2.380       .  S
Zr807       O814   2.390       .  S
Zr808       O834   2.434       .  S
Zr808       O835   2.435       .  S
Zr808       O810   2.436       .  S
Zr808       O811   2.390       .  S
Zr808       O812   2.411       .  S
O809        H846   0.990       .  S
O810        H841   0.990       .  S
O810        H855   0.990       .  S
O812        H838   0.966       .  S
O813       Zr823   2.381       .  S
O814       Zr823   2.394       .  S
O814        H839   0.965       .  S
C815       C3456   1.470       .  S
C816       C3424   1.470       .  S
C817       C3811   1.481       .  S
O818        H854   0.990       .  S
O819        C821   1.284       .  A
O820        C821   1.284       .  A
C821       C3408   1.476       .  S
O822       Zr823   2.439       .  S
O822        H851   0.990       .  S
Zr823       O826   2.437       .  S
Zr823       O827   2.437       .  S
Zr823       O828   2.375       .  S
O824        C829   1.289       .  A
O825        H842   0.990       .  S
O825        H857   0.990       .  S
O826        H843   0.990       .  S
O827        H847   0.990       .  S
O827        H856   0.990       .  S
O828        C829   1.273       .  A
C829       C3440   1.473       .  S
O830        H849   0.991       .  S
O830        H853   0.990       .  S
O831        H845   0.990       .  S
O831        H852   0.990       .  S
O832        C836   1.289       .  A
O833        C836   1.283       .  A
O834        H844   0.990       .  S
O835        H848   0.990       .  S
C836       C3475   1.481       .  S
Zr859       O860   2.442       .  S
Zr859       O861   2.464       .  S
Zr859       O862   2.477       .  S
Zr859       O865   2.437       .  S
Zr859       O867   2.382       .  S
Zr859       O868   2.392       .  S
Zr859       O869   2.413       .  S
Zr859       O870   2.421       .  S
O860        H916   0.990       .  S
O860        H924   0.990       .  S
O861        C881   1.288       .  A
O862        C883   1.290       .  A
O863       Zr873   2.434       .  S
O863        C882   1.285       .  A
O864       Zr872   2.416       .  S
O864        C883   1.281       .  A
O865        C882   1.285       .  A
O866       Zr874   2.388       .  S
O866        C881   1.276       .  A
O867       Zr872   2.397       .  S
O867       Zr874   2.389       .  S
O868       Zr873   2.397       .  S
O868       Zr874   2.378       .  S
O868        H903   0.965       .  S
O869       Zr872   2.396       .  S
O869       Zr889   2.389       .  S
O869        H906   0.964       .  S
O870       Zr873   2.398       .  S
O870       Zr889   2.400       .  S
Zr871       O896   2.441       .  S
Zr871       O890   2.408       .  S
Zr871       O898   2.445       .  S
Zr871       O886   2.443       .  S
Zr871       O877   2.396       .  S
Zr871       O878   2.396       .  S
Zr871       O879   2.381       .  S
Zr871       O880   2.384       .  S
Zr872       O891   2.438       .  S
Zr872       O884   2.436       .  S
Zr872       O885   2.412       .  S
Zr872       O878   2.395       .  S
Zr872       O879   2.384       .  S
Zr873       O875   2.434       .  S
Zr873       O897   2.437       .  S
Zr873       O899   2.451       .  S
Zr873       O877   2.392       .  S
Zr873       O880   2.386       .  S
Zr874       O900   2.437       .  S
Zr874       O901   2.435       .  S
Zr874       O876   2.436       .  S
Zr874       O877   2.392       .  S
Zr874       O878   2.376       .  S
O875        H912   0.990       .  S
O876        H907   0.990       .  S
O876        H921   0.990       .  S
O878        H904   0.967       .  S
O879       Zr889   2.370       .  S
O880       Zr889   2.364       .  S
O880        H905   0.965       .  S
C881       C3363   1.474       .  S
C882       C3328   1.479       .  S
C883       C3472   1.483       .  S
O884        H920   0.990       .  S
O885        C887   1.281       .  A
O886        C887   1.287       .  A
C887       C3347   1.470       .  S
O888       Zr889   2.437       .  S
O888        H917   0.990       .  S
Zr889       O892   2.436       .  S
Zr889       O893   2.441       .  S
Zr889       O894   2.436       .  S
O890        C895   1.280       .  A
O891        H908   0.990       .  S
O891        H923   0.990       .  S
O892        H909   0.990       .  S
O893        H913   0.990       .  S
O893        H922   0.990       .  S
O894        C895   1.284       .  A
C895       C3379   1.468       .  S
O896        H915   0.990       .  S
O896        H919   0.990       .  S
O897        H911   0.990       .  S
O897        H918   0.990       .  S
O898        C902   1.287       .  A
O899        C902   1.288       .  A
O900        H910   0.990       .  S
O901        H914   0.990       .  S
C902       C3392   1.485       .  S
Zr925       O926   2.437       .  S
Zr925       O927   2.421       .  S
Zr925       O928   2.436       .  S
Zr925       O931   2.450       .  S
Zr925       O933   2.389       .  S
Zr925       O934   2.384       .  S
Zr925       O935   2.409   1_545  S
Zr925       O936   2.392       .  S
O926        H982   0.990       .  S
O926        H990   0.990       .  S
O927        C947   1.282       .  A
O928        C949   1.286       .  A
O929       Zr939   2.408       .  S
O929        C948   1.280       .  A
O930       Zr938   2.447       .  S
O930        C949   1.289   1_565  A
O931        C948   1.288       .  A
O932       Zr940   2.436       .  S
O932        C947   1.285       .  A
O933       Zr938   2.393   1_545  S
O933       Zr940   2.365       .  S
O934       Zr939   2.384       .  S
O934       Zr940   2.381       .  S
O934        H969   0.964       .  S
O935       Zr938   2.405       .  S
O935       Zr955   2.398       .  S
O935        H972   0.966       .  S
O936       Zr939   2.388       .  S
O936       Zr955   2.383   1_545  S
Zr937       O962   2.443       .  S
Zr937       O956   2.453       .  S
Zr937       O964   2.447       .  S
Zr937       O952   2.413       .  S
Zr937       O943   2.392       .  S
Zr937       O944   2.424       .  S
Zr937       O945   2.380       .  S
Zr937       O946   2.381       .  S
Zr938       O957   2.435       .  S
Zr938       O950   2.435       .  S
Zr938       O951   2.450       .  S
Zr938       O944   2.399       .  S
Zr938       O945   2.391       .  S
Zr939       O941   2.435       .  S
Zr939       O963   2.438       .  S
Zr939       O965   2.419       .  S
Zr939       O943   2.372   1_545  S
Zr939       O946   2.389   1_545  S
Zr940       O966   2.436       .  S
Zr940       O967   2.435   1_545  S
Zr940       O942   2.436       .  S
Zr940       O943   2.384   1_545  S
Zr940       O944   2.416   1_545  S
O941        H978   0.990       .  S
O942        H973   0.990       .  S
O942        H987   0.990       .  S
O944        H970   0.965       .  S
O945       Zr955   2.375       .  S
O946       Zr955   2.395       .  S
O946        H971   0.966       .  S
C947       C3315   1.472       .  S
C948       C3459   1.474       .  S
C949       C4099   1.483       .  S
O950        H986   0.990       .  S
O951        C953   1.287       .  A
O952        C953   1.278       .  A
C953       C3443   1.474       .  S
O954       Zr955   2.439       .  S
O954        H983   0.990       .  S
Zr955       O958   2.436       .  S
Zr955       O959   2.440       .  S
Zr955       O960   2.396       .  S
O956        C961   1.286       .  A
O957        H974   0.990       .  S
O957        H989   0.990       .  S
O958        H975   0.990       .  S
O959        H979   0.990       .  S
O959        H988   0.990       .  S
O960        C961   1.278       .  A
C961       C3299   1.473       .  S
O962        H981   0.991       .  S
O962        H985   0.991       .  S
O963        H977   0.990       .  S
O963        H984   0.990       .  S
O964        C968   1.286       .  A
O965        C968   1.282   1_545  A
O966        H976   0.990       .  S
O967        H980   0.990       .  S
C968       C3280   1.473       .  S
Zr991       O992   2.441       .  S
Zr991       O993   2.451       .  S
Zr991       O994   2.439       .  S
Zr991       O997   2.401       .  S
Zr991       O999   2.376       .  S
Zr991      O1000   2.381       .  S
Zr991      O1001   2.405   1_545  S
Zr991      O1002   2.410       .  S
O992       H1048   0.990       .  S
O992       H1056   0.990       .  S
O993       C1013   1.286       .  A
O994       C1015   1.284       .  A
O995      Zr1005   2.448       .  S
O995       C1014   1.288       .  A
O996      Zr1004   2.412       .  S
O996       C1015   1.281   1_565  A
O997       C1014   1.278       .  A
O998      Zr1006   2.418       .  S
O998       C1013   1.282       .  A
O999      Zr1004   2.393   1_545  S
O999      Zr1006   2.382       .  S
O1000     Zr1005   2.391       .  S
O1000     Zr1006   2.369       .  S
O1000      H1035   0.967       .  S
O1001     Zr1004   2.398       .  S
O1001     Zr1021   2.389       .  S
O1001      H1038   0.964       .  S
O1002     Zr1005   2.392       .  S
O1002     Zr1021   2.396   1_545  S
Zr1003     O1028   2.444       .  S
Zr1003     O1022   2.433       .  S
Zr1003     O1030   2.428       .  S
Zr1003     O1018   2.441       .  S
Zr1003     O1009   2.408   1_565  S
Zr1003     O1010   2.402       .  S
Zr1003     O1011   2.375       .  S
Zr1003     O1012   2.387       .  S
Zr1004     O1023   2.436       .  S
Zr1004     O1016   2.435       .  S
Zr1004     O1017   2.410       .  S
Zr1004     O1010   2.394       .  S
Zr1004     O1011   2.383       .  S
Zr1005     O1007   2.434       .  S
Zr1005     O1029   2.434       .  S
Zr1005     O1031   2.444       .  S
Zr1005     O1009   2.397       .  S
Zr1005     O1012   2.392   1_545  S
Zr1006     O1032   2.437       .  S
Zr1006     O1033   2.435       .  S
Zr1006     O1008   2.436       .  S
Zr1006     O1009   2.401       .  S
Zr1006     O1010   2.387   1_545  S
O1007      H1044   0.990       .  S
O1008      H1039   0.990       .  S
O1008      H1053   0.990       .  S
O1010      H1036   0.965       .  S
O1011     Zr1021   2.376       .  S
O1012     Zr1021   2.364       .  S
O1012      H1037   0.964       .  S
C1013      C3248   1.482       .  S
C1014      C3360   1.471       .  S
C1015      C3283   1.468       .  S
O1016      H1052   0.990       .  S
O1017      C1019   1.282       .  A
O1018      C1019   1.286       .  A
C1019      C3376   1.469       .  S
O1020     Zr1021   2.441       .  S
O1020      H1049   0.991       .  S
Zr1021     O1024   2.439       .  S
Zr1021     O1025   2.441       .  S
Zr1021     O1026   2.422       .  S
O1022      C1027   1.284       .  A
O1023      H1040   0.990       .  S
O1023      H1055   0.990       .  S
O1024      H1041   0.990       .  S
O1025      H1045   0.990       .  S
O1025      H1054   0.989       .  S
O1026      C1027   1.282       .  A
C1027      C3232   1.473       .  S
O1028      H1047   0.990       .  S
O1028      H1051   0.990       .  S
O1029      H1043   0.990       .  S
O1029      H1050   0.990       .  S
O1030      C1034   1.286       .  A
O1031      C1034   1.287   1_545  A
O1032      H1042   0.990       .  S
O1033      H1046   0.990   1_545  S
C1034      C3264   1.476       .  S
Zr1057     O1058   2.441       .  S
Zr1057     O1059   2.426       .  S
Zr1057     O1060   2.444       .  S
Zr1057     O1063   2.452       .  S
Zr1057     O1065   2.389       .  S
Zr1057     O1066   2.384       .  S
Zr1057     O1067   2.406       .  S
Zr1057     O1068   2.399       .  S
O1058      H1114   0.990       .  S
O1058      H1122   0.990       .  S
O1059      C1079   1.283       .  A
O1060      C1081   1.286       .  A
O1061     Zr1071   2.398       .  S
O1061      C1080   1.277       .  A
O1062     Zr1070   2.441   1_655  S
O1062      C1081   1.286       .  A
O1063      C1080   1.288       .  A
O1064     Zr1072   2.422       .  S
O1064      C1079   1.282       .  A
O1065     Zr1070   2.391   1_655  S
O1065     Zr1072   2.372       .  S
O1066     Zr1071   2.385       .  S
O1066     Zr1072   2.380       .  S
O1066      H1101   0.964       .  S
O1067     Zr1070   2.402   1_655  S
O1067     Zr1087   2.397   1_655  S
O1067      H1104   0.967       .  S
O1068     Zr1071   2.387       .  S
O1068     Zr1087   2.389   1_655  S
Zr1069     O1094   2.442       .  S
Zr1069     O1088   2.457       .  S
Zr1069     O1096   2.461       .  S
Zr1069     O1084   2.423       .  S
Zr1069     O1075   2.389   1_455  S
Zr1069     O1076   2.426       .  S
Zr1069     O1077   2.388       .  S
Zr1069     O1078   2.384       .  S
Zr1070     O1089   2.436       .  S
Zr1070     O1082   2.438       .  S
Zr1070     O1083   2.428       .  S
Zr1070     O1076   2.403       .  S
Zr1070     O1077   2.400       .  S
Zr1071     O1073   2.437       .  S
Zr1071     O1095   2.441       .  S
Zr1071     O1097   2.415       .  S
Zr1071     O1075   2.373       .  S
Zr1071     O1078   2.384   1_655  S
Zr1072     O1098   2.437       .  S
Zr1072     O1099   2.435       .  S
Zr1072     O1074   2.436       .  S
Zr1072     O1075   2.381       .  S
Zr1072     O1076   2.400   1_655  S
O1073      H1110   0.990       .  S
O1074      H1105   0.990       .  S
O1074      H1119   0.990       .  S
O1076      H1102   0.967       .  S
O1077     Zr1087   2.377       .  S
O1078     Zr1087   2.393       .  S
O1078      H1103   0.965       .  S
C1079      C3427   1.468       .  S
C1080      C3312   1.471       .  S
C1081      C3923   1.481       .  S
O1082      H1118   0.990       .  S
O1083      C1085   1.284       .  A
O1084      C1085   1.281       .  A
C1085      C3296   1.468       .  S
O1086     Zr1087   2.438   1_655  S
O1086      H1115   0.990   1_655  S
Zr1087     O1090   2.437       .  S
Zr1087     O1091   2.440       .  S
Zr1087     O1092   2.402       .  S
O1088      C1093   1.286       .  A
O1089      H1106   0.990       .  S
O1089      H1121   0.990       .  S
O1090      H1107   0.990       .  S
O1091      H1111   0.991       .  S
O1091      H1120   0.990       .  S
O1092      C1093   1.278       .  A
C1093      C3411   1.477       .  S
O1094      H1113   0.991       .  S
O1094      H1117   0.990       .  S
O1095      H1109   0.990       .  S
O1095      H1116   0.990       .  S
O1096      C1100   1.289       .  A
O1097      C1100   1.281   1_655  A
O1098      H1108   0.990       .  S
O1099      H1112   0.990   1_655  S
C1100      C3216   1.477       .  S
Zr1123     O1124   2.441       .  S
Zr1123     O1125   2.465       .  S
Zr1123     O1126   2.463       .  S
Zr1123     O1129   2.435       .  S
Zr1123     O1131   2.383       .  S
Zr1123     O1132   2.388       .  S
Zr1123     O1133   2.413   1_655  S
Zr1123     O1134   2.421       .  S
O1124      H1180   0.990       .  S
O1124      H1188   0.990       .  S
O1125      C1145   1.289       .  A
O1126      C1147   1.289       .  A
O1127     Zr1137   2.431       .  S
O1127      C1146   1.285       .  A
O1128     Zr1136   2.438       .  S
O1128      C1147   1.284   1_455  A
O1129      C1146   1.284       .  A
O1130     Zr1138   2.406       .  S
O1130      C1145   1.279       .  A
O1131     Zr1136   2.393   1_655  S
O1131     Zr1138   2.391       .  S
O1132     Zr1137   2.395       .  S
O1132     Zr1138   2.372       .  S
O1132      H1167   0.965       .  S
O1133     Zr1136   2.400       .  S
O1133     Zr1153   2.376       .  S
O1133      H1170   0.963       .  S
O1134     Zr1137   2.395       .  S
O1134     Zr1153   2.405   1_655  S
Zr1135     O1160   2.438       .  S
Zr1135     O1154   2.419       .  S
Zr1135     O1162   2.444       .  S
Zr1135     O1150   2.437       .  S
Zr1135     O1141   2.397   1_455  S
Zr1135     O1142   2.405       .  S
Zr1135     O1143   2.377       .  S
Zr1135     O1144   2.384       .  S
Zr1136     O1155   2.441       .  S
Zr1136     O1148   2.435       .  S
Zr1136     O1149   2.424       .  S
Zr1136     O1142   2.398       .  S
Zr1136     O1143   2.386       .  S
Zr1137     O1139   2.435       .  S
Zr1137     O1161   2.435       .  S
Zr1137     O1163   2.449       .  S
Zr1137     O1141   2.389       .  S
Zr1137     O1144   2.391   1_655  S
Zr1138     O1164   2.436       .  S
Zr1138     O1165   2.436       .  S
Zr1138     O1140   2.436       .  S
Zr1138     O1141   2.397       .  S
Zr1138     O1142   2.386   1_655  S
O1139      H1176   0.990       .  S
O1140      H1171   0.990       .  S
O1140      H1185   0.990       .  S
O1142      H1168   0.966       .  S
O1143     Zr1153   2.365       .  S
O1144     Zr1153   2.365       .  S
O1144      H1169   0.964       .  S
C1145      C3331   1.482       .  S
C1146      C3251   1.475       .  S
C1147      C3219   1.481       .  S
O1148      H1184   0.990       .  S
O1149      C1151   1.285       .  A
O1150      C1151   1.286       .  A
C1151      C3235   1.473       .  S
O1152     Zr1153   2.438       .  S
O1152      H1181   0.990       .  S
Zr1153     O1156   2.438       .  S
Zr1153     O1157   2.436       .  S
Zr1153     O1158   2.436       .  S
O1154      C1159   1.282       .  A
O1155      H1172   0.990       .  S
O1155      H1187   0.990       .  S
O1156      H1173   0.990       .  S
O1157      H1177   0.990       .  S
O1157      H1186   0.990       .  S
O1158      C1159   1.285       .  A
C1159      C3344   1.473       .  S
O1160      H1179   0.990       .  S
O1160      H1183   0.990       .  S
O1161      H1175   0.990       .  S
O1161      H1182   0.990       .  S
O1162      C1166   1.288       .  A
O1163      C1166   1.288   1_655  A
O1164      H1174   0.990       .  S
O1165      H1178   0.990       .  S
C1166      C3203   1.485       .  S
Zr1189     O1190   2.438       .  S
Zr1189     O1191   2.408       .  S
Zr1189     O1192   2.430       .  S
Zr1189     O1195   2.415       .  S
Zr1189     O1197   2.379       .  S
Zr1189     O1198   2.382       .  S
Zr1189     O1199   2.391       .  S
Zr1189     O1200   2.397       .  S
O1190      H1246   0.990       .  S
O1190      H1254   0.990       .  S
O1191      C1211   1.280       .  A
O1192      C1213   1.283       .  A
O1193     Zr1203   2.432       .  S
O1193      C1212   1.285       .  A
O1194     Zr1202   2.449       .  S
O1194      C1213   1.287       .  A
O1195      C1212   1.281       .  A
O1196     Zr1204   2.424       .  S
O1196      C1211   1.283       .  A
O1197     Zr1202   2.384       .  S
O1197     Zr1204   2.373       .  S
O1198     Zr1203   2.390       .  S
O1198     Zr1204   2.377       .  S
O1198      H1233   0.965       .  S
O1199     Zr1202   2.392       .  S
O1199     Zr1219   2.392       .  S
O1199      H1236   0.966       .  S
O1200     Zr1203   2.385       .  S
O1200     Zr1219   2.383       .  S
Zr1201     O1226   2.440       .  S
Zr1201     O1220   2.467       .  S
Zr1201     O1228   2.472       .  S
Zr1201     O1216   2.445       .  S
Zr1201     O1207   2.389       .  S
Zr1201     O1208   2.424       .  S
Zr1201     O1209   2.385       .  S
Zr1201     O1210   2.391       .  S
Zr1202     O1221   2.436       .  S
Zr1202     O1214   2.435       .  S
Zr1202     O1215   2.409       .  S
Zr1202     O1208   2.405       .  S
Zr1202     O1209   2.398       .  S
Zr1203     O1205   2.435       .  S
Zr1203     O1227   2.439       .  S
Zr1203     O1229   2.428       .  S
Zr1203     O1207   2.379       .  S
Zr1203     O1210   2.396       .  S
Zr1204     O1230   2.437       .  S
Zr1204     O1231   2.436       .  S
Zr1204     O1206   2.437       .  S
Zr1204     O1207   2.375       .  S
Zr1204     O1208   2.406       .  S
O1205      H1242   0.990       .  S
O1206      H1237   0.990       .  S
O1206      H1251   0.990       .  S
O1208      H1234   0.968       .  S
O1209     Zr1219   2.379       .  S
O1210     Zr1219   2.392       .  S
O1210      H1235   0.964       .  S
C1211      C3139   1.464       .  S
C1212      C3107   1.469       .  S
C1213      C3187   1.481       .  S
O1214      H1250   0.990       .  S
O1215      C1217   1.281       .  A
O1216      C1217   1.285       .  A
C1217      C3120   1.469       .  S
O1218     Zr1219   2.438       .  S
O1218      H1247   0.990       .  S
Zr1219     O1222   2.435       .  S
Zr1219     O1223   2.441       .  S
Zr1219     O1224   2.392       .  S
O1220      C1225   1.288       .  A
O1221      H1238   0.990       .  S
O1221      H1253   0.990       .  S
O1222      H1239   0.990       .  S
O1223      H1243   0.990       .  S
O1223      H1252   0.990       .  S
O1224      C1225   1.277       .  A
C1225      C3155   1.478       .  S
O1226      H1245   0.991       .  S
O1226      H1249   0.990       .  S
O1227      H1241   0.990       .  S
O1227      H1248   0.990       .  S
O1228      C1232   1.292       .  A
O1229      C1232   1.284       .  A
O1230      H1240   0.990       .  S
O1231      H1244   0.990       .  S
C1232      C3171   1.483       .  S
Zr1255     O1256   2.443       .  S
Zr1255     O1257   2.470       .  S
Zr1255     O1258   2.478       .  S
Zr1255     O1261   2.436       .  S
Zr1255     O1263   2.384       .  S
Zr1255     O1264   2.396       .  S
Zr1255     O1265   2.416       .  S
Zr1255     O1266   2.419       .  S
O1256      H1312   0.990       .  S
O1256      H1320   0.991       .  S
O1257      C1277   1.289       .  A
O1258      C1279   1.290       .  A
O1259     Zr1269   2.435       .  S
O1259      C1278   1.286       .  A
O1260     Zr1268   2.428       .  S
O1260      C1279   1.282       .  A
O1261      C1278   1.285       .  A
O1262     Zr1270   2.390       .  S
O1262      C1277   1.276       .  A
O1263     Zr1268   2.397       .  S
O1263     Zr1270   2.390       .  S
O1264     Zr1269   2.400       .  S
O1264     Zr1270   2.378       .  S
O1264      H1299   0.964       .  S
O1265     Zr1268   2.403       .  S
O1265     Zr1285   2.383       .  S
O1265      H1302   0.963       .  S
O1266     Zr1269   2.402       .  S
O1266     Zr1285   2.396       .  S
Zr1267     O1292   2.443       .  S
Zr1267     O1286   2.402       .  S
Zr1267     O1294   2.425       .  S
Zr1267     O1282   2.419       .  S
Zr1267     O1273   2.391       .  S
Zr1267     O1274   2.397       .  S
Zr1267     O1275   2.381       .  S
Zr1267     O1276   2.381       .  S
Zr1268     O1287   2.440       .  S
Zr1268     O1280   2.434       .  S
Zr1268     O1281   2.432       .  S
Zr1268     O1274   2.395       .  S
Zr1268     O1275   2.385       .  S
Zr1269     O1271   2.436       .  S
Zr1269     O1293   2.436       .  S
Zr1269     O1295   2.467       .  S
Zr1269     O1273   2.387       .  S
Zr1269     O1276   2.384       .  S
Zr1270     O1296   2.435       .  S
Zr1270     O1297   2.437       .  S
Zr1270     O1272   2.437       .  S
Zr1270     O1273   2.394       .  S
Zr1270     O1274   2.379       .  S
O1271      H1308   0.990       .  S
O1272      H1303   0.990       .  S
O1272      H1317   0.990       .  S
O1274      H1300   0.966       .  S
O1275     Zr1285   2.372       .  S
O1276     Zr1285   2.360       .  S
O1276      H1301   0.965       .  S
C1277      C3075   1.479       .  S
C1278      C3040   1.478   1_455  S
C1279      C3168   1.485       .  S
O1280      H1316   0.990       .  S
O1281      C1283   1.286       .  A
O1282      C1283   1.282       .  A
C1283      C3056   1.468       .  S
O1284     Zr1285   2.438       .  S
O1284      H1313   0.990       .  S
Zr1285     O1288   2.437       .  S
Zr1285     O1289   2.437       .  S
Zr1285     O1290   2.438       .  S
O1286      C1291   1.279       .  A
O1287      H1304   0.991       .  S
O1287      H1319   0.990       .  S
O1288      H1305   0.990       .  S
O1289      H1309   0.990       .  S
O1289      H1318   0.990       .  S
O1290      C1291   1.286       .  A
C1291      C3088   1.466       .  S
O1292      H1311   0.990       .  S
O1292      H1315   0.990       .  S
O1293      H1307   0.990       .  S
O1293      H1314   0.990       .  S
O1294      C1298   1.284       .  A
O1295      C1298   1.291       .  A
O1296      H1306   0.990       .  S
O1297      H1310   0.990       .  S
C1298      C3200   1.483       .  S
Zr1321     O1322   2.439       .  S
Zr1321     O1323   2.414       .  S
Zr1321     O1324   2.435       .  S
Zr1321     O1327   2.447       .  S
Zr1321     O1329   2.383       .  S
Zr1321     O1330   2.385       .  S
Zr1321     O1331   2.398       .  S
Zr1321     O1332   2.384       .  S
O1322      H1378   0.990       .  S
O1322      H1386   0.990       .  S
O1323      C1343   1.280       .  A
O1324      C1345   1.286       .  A
O1325     Zr1335   2.406       .  S
O1325      C1344   1.281       .  A
O1326     Zr1334   2.436       .  S
O1326      C1345   1.285       .  A
O1327      C1344   1.287       .  A
O1328     Zr1336   2.447       .  S
O1328      C1343   1.287       .  A
O1329     Zr1334   2.395       .  S
O1329     Zr1336   2.368       .  S
O1330     Zr1335   2.386       .  S
O1330     Zr1336   2.377       .  S
O1330      H1365   0.964       .  S
O1331     Zr1334   2.402       .  S
O1331     Zr1351   2.390       .  S
O1331      H1368   0.966       .  S
O1332     Zr1335   2.384       .  S
O1332     Zr1351   2.370       .  S
Zr1333     O1358   2.442       .  S
Zr1333     O1352   2.475       .  S
Zr1333     O1360   2.462       .  S
Zr1333     O1348   2.439       .  S
Zr1333     O1339   2.399       .  S
Zr1333     O1340   2.427       .  S
Zr1333     O1341   2.382       .  S
Zr1333     O1342   2.385       .  S
Zr1334     O1353   2.436       .  S
Zr1334     O1346   2.434       .  S
Zr1334     O1347   2.438       .  S
Zr1334     O1340   2.402       .  S
Zr1334     O1341   2.391       .  S
Zr1335     O1337   2.435       .  S
Zr1335     O1359   2.440       .  S
Zr1335     O1361   2.416       .  S
Zr1335     O1339   2.379       .  S
Zr1335     O1342   2.387       .  S
Zr1336     O1362   2.435       .  S
Zr1336     O1363   2.437       .  S
Zr1336     O1338   2.435       .  S
Zr1336     O1339   2.390       .  S
Zr1336     O1340   2.417       .  S
O1337      H1374   0.990       .  S
O1338      H1369   0.990   1_455  S
O1338      H1383   0.990       .  S
O1340      H1366   0.965       .  S
O1341     Zr1351   2.380       .  S
O1342     Zr1351   2.395       .  S
O1342      H1367   0.966       .  S
C1343      C2992   1.474   1_455  S
C1344      C3136   1.471       .  S
C1345      C3024   1.477       .  S
O1346      H1382   0.990       .  S
O1347      C1349   1.286       .  A
O1348      C1349   1.283       .  A
C1349      C3152   1.480       .  S
O1350     Zr1351   2.441       .  S
O1350      H1379   0.990       .  S
Zr1351     O1354   2.438       .  S
Zr1351     O1355   2.440       .  S
Zr1351     O1356   2.378       .  S
O1352      C1357   1.290       .  A
O1353      H1370   0.990       .  S
O1353      H1385   0.990       .  S
O1354      H1371   0.990       .  S
O1355      H1375   0.990       .  S
O1355      H1384   0.990       .  S
O1356      C1357   1.274       .  A
C1357      C2979   1.474       .  S
O1358      H1377   0.991       .  S
O1358      H1381   0.990       .  S
O1359      H1373   0.990       .  S
O1359      H1380   0.990       .  S
O1360      C1364   1.289       .  A
O1361      C1364   1.282       .  A
O1362      H1372   0.990       .  S
O1363      H1376   0.990       .  S
C1364      C3011   1.477       .  S
Zr1387     O1388   2.443       .  S
Zr1387     O1389   2.462       .  S
Zr1387     O1390   2.473       .  S
Zr1387     O1393   2.423       .  S
Zr1387     O1395   2.377       .  S
Zr1387     O1396   2.393       .  S
Zr1387     O1397   2.407       .  S
Zr1387     O1398   2.421       .  S
O1388      H1444   0.990       .  S
O1388      H1452   0.991       .  S
O1389      C1409   1.288       .  A
O1390      C1411   1.290       .  A
O1391     Zr1401   2.454       .  S
O1391      C1410   1.289       .  A
O1392     Zr1400   2.423       .  S
O1392      C1411   1.281       .  A
O1393      C1410   1.282       .  A
O1394     Zr1402   2.391       .  S
O1394      C1409   1.276       .  A
O1395     Zr1400   2.388       .  S
O1395     Zr1402   2.390       .  S
O1396     Zr1401   2.393       .  S
O1396     Zr1402   2.379       .  S
O1396      H1431   0.965       .  S
O1397     Zr1400   2.393       .  S
O1397     Zr1417   2.387       .  S
O1397      H1434   0.964       .  S
O1398     Zr1401   2.397       .  S
O1398     Zr1417   2.405       .  S
Zr1399     O1424   2.443       .  S
Zr1399     O1418   2.407       .  S
Zr1399     O1426   2.425       .  S
Zr1399     O1414   2.452       .  S
Zr1399     O1405   2.400       .  S
Zr1399     O1406   2.394       .  S
Zr1399     O1407   2.377       .  S
Zr1399     O1408   2.388       .  S
Zr1400     O1419   2.437       .  S
Zr1400     O1412   2.435       .  S
Zr1400     O1413   2.397       .  S
Zr1400     O1406   2.396       .  S
Zr1400     O1407   2.386       .  S
Zr1401     O1403   2.433       .  S
Zr1401     O1425   2.436       .  S
Zr1401     O1427   2.452       .  S
Zr1401     O1405   2.398       .  S
Zr1401     O1408   2.392       .  S
Zr1402     O1428   2.437       .  S
Zr1402     O1429   2.437       .  S
Zr1402     O1404   2.438       .  S
Zr1402     O1405   2.392       .  S
Zr1402     O1406   2.378       .  S
O1403      H1440   0.990       .  S
O1404      H1435   0.990       .  S
O1404      H1449   0.990       .  S
O1406      H1432   0.966       .  S
O1407     Zr1417   2.371       .  S
O1408     Zr1417   2.363       .  S
O1408      H1433   0.964       .  S
C1409      C2947   1.474       .  S
C1410      C3072   1.481       .  S
C1411      C3008   1.483       .  S
O1412      H1448   0.990       .  S
O1413      C1415   1.279       .  A
O1414      C1415   1.288       .  A
C1415      C3091   1.468       .  S
O1416     Zr1417   2.439       .  S
O1416      H1445   0.990       .  S
Zr1417     O1420   2.437       .  S
Zr1417     O1421   2.441       .  S
Zr1417     O1422   2.443       .  S
O1418      C1423   1.279       .  A
O1419      H1436   0.990       .  S
O1419      H1451   0.990       .  S
O1420      H1437   0.990       .  S
O1421      H1441   0.990       .  S
O1421      H1450   0.990       .  S
O1422      C1423   1.286       .  A
C1423      C2963   1.469       .  S
O1424      H1443   0.990       .  S
O1424      H1447   0.990       .  S
O1425      H1439   0.990       .  S
O1425      H1446   0.990       .  S
O1426      C1430   1.284       .  A
O1427      C1430   1.288       .  A
O1428      H1438   0.990       .  S
O1429      H1442   0.990       .  S
C1430      C3267   1.478       .  S
Zr1453     O1454   2.438       .  S
Zr1453     O1455   2.428       .  S
Zr1453     O1456   2.440       .  S
Zr1453     O1459   2.450       .  S
Zr1453     O1461   2.388       .  S
Zr1453     O1462   2.388       .  S
Zr1453     O1463   2.407       .  S
Zr1453     O1464   2.396       .  S
O1454      H1510   0.990       .  S
O1454      H1518   0.990       .  S
O1455      C1475   1.283       .  A
O1456      C1477   1.286       .  A
O1457     Zr1467   2.407       .  S
O1457      C1476   1.279       .  A
O1458     Zr1466   2.456       .  S
O1458      C1477   1.289       .  A
O1459      C1476   1.287       .  A
O1460     Zr1468   2.416       .  S
O1460      C1475   1.281       .  A
O1461     Zr1466   2.395       .  S
O1461     Zr1468   2.372       .  S
O1462     Zr1467   2.388       .  S
O1462     Zr1468   2.383       .  S
O1462      H1497   0.963       .  S
O1463     Zr1466   2.405       .  S
O1463     Zr1483   2.400       .  S
O1463      H1500   0.966       .  S
O1464     Zr1467   2.384       .  S
O1464     Zr1483   2.388       .  S
Zr1465     O1490   2.443       .  S
Zr1465     O1484   2.435       .  S
Zr1465     O1492   2.452       .  S
Zr1465     O1480   2.412       .  S
Zr1465     O1471   2.381       .  S
Zr1465     O1472   2.417       .  S
Zr1465     O1473   2.387       .  S
Zr1465     O1474   2.379       .  S
Zr1466     O1485   2.436       .  S
Zr1466     O1478   2.434       .  S
Zr1466     O1479   2.456       .  S
Zr1466     O1472   2.405       .  S
Zr1466     O1473   2.399       .  S
Zr1467     O1469   2.436       .  S
Zr1467     O1491   2.439       .  S
Zr1467     O1493   2.422       .  S
Zr1467     O1471   2.376       .  S
Zr1467     O1474   2.384       .  S
Zr1468     O1494   2.436       .  S
Zr1468     O1495   2.436       .  S
Zr1468     O1470   2.434       .  S
Zr1468     O1471   2.375       .  S
Zr1468     O1472   2.396       .  S
O1469      H1506   0.990       .  S
O1470      H1501   0.990       .  S
O1470      H1515   0.990       .  S
O1472      H1498   0.966       .  S
O1473     Zr1483   2.378       .  S
O1474     Zr1483   2.393       .  S
O1474      H1499   0.966       .  S
C1475      C3104   1.467       .  S
C1476      C2995   1.475       .  S
C1477      C2912   1.488       .  S
O1478      H1514   0.990       .  S
O1479      C1481   1.289       .  A
O1480      C1481   1.278       .  A
C1481      C2976   1.475       .  S
O1482     Zr1483   2.441       .  S
O1482      H1511   0.990       .  S
Zr1483     O1486   2.438       .  S
Zr1483     O1487   2.441       .  S
Zr1483     O1488   2.410       .  S
O1484      C1489   1.282       .  A
O1485      H1502   0.990       .  S
O1485      H1517   0.990       .  S
O1486      H1503   0.990       .  S
O1487      H1507   0.990       .  S
O1487      H1516   0.989       .  S
O1488      C1489   1.280       .  A
C1489      C3123   1.470       .  S
O1490      H1509   0.991       .  S
O1490      H1513   0.990       .  S
O1491      H1505   0.990       .  S
O1491      H1512   0.990       .  S
O1492      C1496   1.287       .  A
O1493      C1496   1.282       .  A
O1494      H1504   0.990       .  S
O1495      H1508   0.990       .  S
C1496      C2928   1.474       .  S
Zr1519     O1520   2.442       .  S
Zr1519     O1521   2.451       .  S
Zr1519     O1522   2.458       .  S
Zr1519     O1525   2.411       .  S
Zr1519     O1527   2.375       .  S
Zr1519     O1528   2.388       .  S
Zr1519     O1529   2.405       .  S
Zr1519     O1530   2.418       .  S
O1520      H1576   0.990       .  S
O1520      H1584   0.990       .  S
O1521      C1541   1.285       .  A
O1522      C1543   1.287       .  A
O1523     Zr1533   2.447       .  S
O1523      C1542   1.287       .  A
O1524     Zr1532   2.409       .  S
O1524      C1543   1.280       .  A
O1525      C1542   1.280       .  A
O1526     Zr1534   2.412       .  S
O1526      C1541   1.280       .  A
O1527     Zr1532   2.394       .  S
O1527     Zr1534   2.385       .  S
O1528     Zr1533   2.397       .  S
O1528     Zr1534   2.373       .  S
O1528      H1563   0.966       .  S
O1529     Zr1532   2.395       .  S
O1529     Zr1549   2.384       .  S
O1529      H1566   0.963       .  S
O1530     Zr1533   2.393       .  S
O1530     Zr1549   2.392       .  S
Zr1531     O1556   2.448       .  S
Zr1531     O1550   2.433       .  S
Zr1531     O1558   2.433       .  S
Zr1531     O1546   2.450       .  S
Zr1531     O1537   2.406       .  S
Zr1531     O1538   2.404       .  S
Zr1531     O1539   2.376       .  S
Zr1531     O1540   2.393       .  S
Zr1532     O1551   2.437       .  S
Zr1532     O1544   2.437       .  S
Zr1532     O1545   2.402       .  S
Zr1532     O1538   2.397       .  S
Zr1532     O1539   2.381       .  S
Zr1533     O1535   2.438       .  S
Zr1533     O1557   2.432       .  S
Zr1533     O1559   2.447       .  S
Zr1533     O1537   2.397       .  S
Zr1533     O1540   2.390       .  S
Zr1534     O1560   2.434       .  S
Zr1534     O1561   2.434       .  S
Zr1534     O1536   2.435       .  S
Zr1534     O1537   2.396       .  S
Zr1534     O1538   2.387       .  S
O1535      H1572   0.990       .  S
O1536      H1567   0.990       .  S
O1536      H1581   0.990       .  S
O1538      H1564   0.965       .  S
O1539     Zr1549   2.376       .  S
O1540     Zr1549   2.366       .  S
O1540      H1565   0.964       .  S
C1541      C3043   1.480       .  S
C1542      C2944   1.473       .  S
C1543      C2931   1.473       .  S
O1544      H1580   0.990       .  S
O1545      C1547   1.280       .  A
O1546      C1547   1.287       .  A
C1547      C2960   1.468       .  S
O1548     Zr1549   2.440       .  S
O1548      H1577   0.990       .  S
Zr1549     O1552   2.437       .  S
Zr1549     O1553   2.442       .  S
Zr1549     O1554   2.418       .  S
O1550      C1555   1.285       .  A
O1551      H1568   0.990       .  S
O1551      H1583   0.990       .  S
O1552      H1569   0.990       .  S
O1553      H1573   0.990       .  S
O1553      H1582   0.990       .  S
O1554      C1555   1.281       .  A
C1555      C3059   1.470       .  S
O1556      H1575   0.990       .  S
O1556      H1579   0.990       .  S
O1557      H1571   0.990       .  S
O1557      H1578   0.990       .  S
O1558      C1562   1.285       .  A
O1559      C1562   1.288       .  A
O1560      H1570   0.990       .  S
O1561      H1574   0.990       .  S
C1562      C3395   1.480       .  S
Zr1585     O1586   2.439       .  S
Zr1585     O1587   2.415       .  S
Zr1585     O1588   2.423       .  S
Zr1585     O1591   2.422       .  S
Zr1585     O1593   2.380       .  S
Zr1585     O1594   2.383       .  S
Zr1585     O1595   2.396       .  S
Zr1585     O1596   2.394       .  S
O1586      H1642   0.990       .  S
O1586      H1650   0.990       .  S
O1587      C1607   1.281       .  A
O1588      C1609   1.283       .  A
O1589     Zr1599   2.444       .  S
O1589      C1608   1.287       .  A
O1590     Zr1598   2.439       .  S
O1590      C1609   1.286       .  A
O1591      C1608   1.283       .  A
O1592     Zr1600   2.441       .  S
O1592      C1607   1.287       .  A
O1593     Zr1598   2.386       .  S
O1593     Zr1600   2.366       .  S
O1594     Zr1599   2.383       .  S
O1594     Zr1600   2.378       .  S
O1594      H1629   0.965       .  S
O1595     Zr1598   2.398       .  S
O1595     Zr1615   2.391       .  S
O1595      H1632   0.966       .  S
O1596     Zr1599   2.383       .  S
O1596     Zr1615   2.382       .  S
Zr1597     O1622   2.441       .  S
Zr1597     O1616   2.457       .  S
Zr1597     O1624   2.454       .  S
Zr1597     O1612   2.450       .  S
Zr1597     O1603   2.399       .  S
Zr1597     O1604   2.418       .  S
Zr1597     O1605   2.382       .  S
Zr1597     O1606   2.394       .  S
Zr1598     O1617   2.437       .  S
Zr1598     O1610   2.436       .  S
Zr1598     O1611   2.429       .  S
Zr1598     O1604   2.400       .  S
Zr1598     O1605   2.395       .  S
Zr1599     O1601   2.435       .  S
Zr1599     O1623   2.441       .  S
Zr1599     O1625   2.427       .  S
Zr1599     O1603   2.385       .  S
Zr1599     O1606   2.396       .  S
Zr1600     O1626   2.435       .  S
Zr1600     O1627   2.435       .  S
Zr1600     O1602   2.434       .  S
Zr1600     O1603   2.382       .  S
Zr1600     O1604   2.411       .  S
O1601      H1638   0.990       .  S
O1602      H1633   0.990   1_655  S
O1602      H1647   0.990       .  S
O1604      H1630   0.964       .  S
O1605     Zr1615   2.378       .  S
O1606     Zr1615   2.392       .  S
O1606      H1631   0.967       .  S
C1607      C2832   1.472   1_655  S
C1608      C2867   1.475       .  S
C1609      C3027   1.474       .  S
O1610      H1646   0.990       .  S
O1611      C1613   1.284       .  A
O1612      C1613   1.285       .  A
C1613      C2883   1.482       .  S
O1614     Zr1615   2.440       .  S
O1614      H1643   0.990       .  S
Zr1615     O1618   2.436       .  S
Zr1615     O1619   2.440       .  S
Zr1615     O1620   2.393       .  S
O1616      C1621   1.286       .  A
O1617      H1634   0.990       .  S
O1617      H1649   0.990       .  S
O1618      H1635   0.990       .  S
O1619      H1639   0.990       .  S
O1619      H1648   0.990       .  S
O1620      C1621   1.277       .  A
C1621      C2851   1.477       .  S
O1622      H1641   0.991       .  S
O1622      H1645   0.990       .  S
O1623      H1637   0.990       .  S
O1623      H1644   0.990       .  S
O1624      C1628   1.288       .  A
O1625      C1628   1.284       .  A
O1626      H1636   0.990       .  S
O1627      H1640   0.990       .  S
C1628      C2896   1.477       .  S
Zr1651     O1652   2.443       .  S
Zr1651     O1653   2.459       .  S
Zr1651     O1654   2.454       .  S
Zr1651     O1657   2.418       .  S
Zr1651     O1659   2.378       .  S
Zr1651     O1660   2.387       .  S
Zr1651     O1661   2.404       .  S
Zr1651     O1662   2.419       .  S
O1652      H1708   0.991       .  S
O1652      H1716   0.991       .  S
O1653      C1673   1.288       .  A
O1654      C1675   1.287       .  A
O1655     Zr1665   2.454       .  S
O1655      C1674   1.290       .  A
O1656     Zr1664   2.436       .  S
O1656      C1675   1.284       .  A
O1657      C1674   1.282       .  A
O1658     Zr1666   2.408       .  S
O1658      C1673   1.280       .  A
O1659     Zr1664   2.394       .  S
O1659     Zr1666   2.389       .  S
O1660     Zr1665   2.394       .  S
O1660     Zr1666   2.367       .  S
O1660      H1695   0.966       .  S
O1661     Zr1664   2.398       .  S
O1661     Zr1681   2.377       .  S
O1661      H1698   0.964       .  S
O1662     Zr1665   2.396       .  S
O1662     Zr1681   2.397       .  S
Zr1663     O1688   2.442       .  S
Zr1663     O1682   2.430       .  S
Zr1663     O1690   2.450       .  S
Zr1663     O1678   2.458       .  S
Zr1663     O1669   2.408       .  S
Zr1663     O1670   2.402       .  S
Zr1663     O1671   2.380       .  S
Zr1663     O1672   2.389       .  S
Zr1664     O1683   2.438       .  S
Zr1664     O1676   2.435       .  S
Zr1664     O1677   2.418       .  S
Zr1664     O1670   2.398       .  S
Zr1664     O1671   2.390       .  S
Zr1665     O1667   2.436       .  S
Zr1665     O1689   2.437       .  S
Zr1665     O1691   2.453       .  S
Zr1665     O1669   2.398       .  S
Zr1665     O1672   2.392       .  S
Zr1666     O1692   2.436       .  S
Zr1666     O1693   2.434       .  S
Zr1666     O1668   2.435       .  S
Zr1666     O1669   2.398       .  S
Zr1666     O1670   2.382       .  S
O1667      H1704   0.990       .  S
O1668      H1699   0.990       .  S
O1668      H1713   0.990       .  S
O1670      H1696   0.966       .  S
O1671     Zr1681   2.375       .  S
O1672     Zr1681   2.363       .  S
O1672      H1697   0.966       .  S
C1673      C2784   1.482       .  S
C1674      C2755   1.477       .  S
C1675      C2899   1.478       .  S
O1676      H1712   0.990       .  S
O1677      C1679   1.284       .  A
O1678      C1679   1.289       .  A
C1679      C2768   1.480       .  S
O1680     Zr1681   2.438       .  S
O1680      H1709   0.990       .  S
Zr1681     O1684   2.438       .  S
Zr1681     O1685   2.440       .  S
Zr1681     O1686   2.417       .  S
O1682      C1687   1.284       .  A
O1683      H1700   0.990       .  S
O1683      H1715   0.990       .  S
O1684      H1701   0.990       .  S
O1685      H1705   0.990       .  S
O1685      H1714   0.990       .  S
O1686      C1687   1.281       .  A
C1687      C2803   1.470       .  S
O1688      H1707   0.990       .  S
O1688      H1711   0.990       .  S
O1689      H1703   0.990       .  S
O1689      H1710   0.990       .  S
O1690      C1694   1.289       .  A
O1691      C1694   1.289       .  A
O1692      H1702   0.990       .  S
O1693      H1706   0.990       .  S
C1694      C2819   1.488       .  S
Zr1717     O1718   2.439       .  S
Zr1717     O1719   2.417       .  S
Zr1717     O1720   2.450       .  S
Zr1717     O1723   2.455       .  S
Zr1717     O1725   2.387       .  S
Zr1717     O1726   2.388       .  S
Zr1717     O1727   2.403       .  S
Zr1717     O1728   2.395       .  S
O1718      H1774   0.990       .  S
O1718      H1782   0.990       .  S
O1719      C1739   1.282       .  A
O1720      C1741   1.288       .  A
O1721     Zr1731   2.401       .  S
O1721      C1740   1.279       .  A
O1722     Zr1730   2.426       .  S
O1722      C1741   1.284       .  A
O1723      C1740   1.288       .  A
O1724     Zr1732   2.442       .  S
O1724      C1739   1.286       .  A
O1725     Zr1730   2.392       .  S
O1725     Zr1732   2.368       .  S
O1726     Zr1731   2.386       .  S
O1726     Zr1732   2.376       .  S
O1726      H1761   0.963       .  S
O1727     Zr1730   2.400       .  S
O1727     Zr1747   2.388       .  S
O1727      H1764   0.966       .  S
O1728     Zr1731   2.388       .  S
O1728     Zr1747   2.380       .  S
Zr1729     O1754   2.444       .  S
Zr1729     O1748   2.460       .  S
Zr1729     O1756   2.456       .  S
Zr1729     O1744   2.430       .  S
Zr1729     O1735   2.397       .  S
Zr1729     O1736   2.424       .  S
Zr1729     O1737   2.383       .  S
Zr1729     O1738   2.383       .  S
Zr1730     O1749   2.436       .  S
Zr1730     O1742   2.435       .  S
Zr1730     O1743   2.428       .  S
Zr1730     O1736   2.399       .  S
Zr1730     O1737   2.388       .  S
Zr1731     O1733   2.435       .  S
Zr1731     O1755   2.440       .  S
Zr1731     O1757   2.416       .  S
Zr1731     O1735   2.378       .  S
Zr1731     O1738   2.388       .  S
Zr1732     O1758   2.436       .  S
Zr1732     O1759   2.435       .  S
Zr1732     O1734   2.435       .  S
Zr1732     O1735   2.389       .  S
Zr1732     O1736   2.413       .  S
O1733      H1770   0.990       .  S
O1734      H1765   0.990       .  S
O1734      H1779   0.990       .  S
O1736      H1762   0.965       .  S
O1737     Zr1747   2.378       .  S
O1738     Zr1747   2.396       .  S
O1738      H1763   0.965       .  S
C1739      C2739   1.474       .  S
C1740      C2835   1.473       .  S
C1741      C3184   1.480       .  S
O1742      H1778   0.990       .  S
O1743      C1745   1.283       .  A
O1744      C1745   1.281       .  A
C1745      C2848   1.473       .  S
O1746     Zr1747   2.440       .  S
O1746      H1775   0.990       .  S
Zr1747     O1750   2.440       .  S
Zr1747     O1751   2.437       .  S
Zr1747     O1752   2.389       .  S
O1748      C1753   1.287       .  A
O1749      H1766   0.990       .  S
O1749      H1781   0.990       .  S
O1750      H1767   0.990       .  S
O1751      H1771   0.990       .  S
O1751      H1780   0.989       .  S
O1752      C1753   1.276       .  A
C1753      C2723   1.472       .  S
O1754      H1773   0.991       .  S
O1754      H1777   0.990       .  S
O1755      H1769   0.990       .  S
O1755      H1776   0.990       .  S
O1756      C1760   1.288       .  A
O1757      C1760   1.282       .  A
O1758      H1768   0.990       .  S
O1759      H1772   0.990       .  S
C1760      C2704   1.475       .  S
Zr1783     O1784   2.441       .  S
Zr1783     O1785   2.457       .  S
Zr1783     O1786   2.448       .  S
Zr1783     O1789   2.431       .  S
Zr1783     O1791   2.384       .  S
Zr1783     O1792   2.383       .  S
Zr1783     O1793   2.412       .  S
Zr1783     O1794   2.414       .  S
O1784      H1840   0.990       .  S
O1784      H1848   0.990       .  S
O1785      C1805   1.287       .  A
O1786      C1807   1.286       .  A
O1787     Zr1797   2.439       .  S
O1787      C1806   1.286   1_545  A
O1788     Zr1796   2.418       .  S
O1788      C1807   1.281       .  A
O1789      C1806   1.284   1_545  A
O1790     Zr1798   2.406       .  S
O1790      C1805   1.280       .  A
O1791     Zr1796   2.394       .  S
O1791     Zr1798   2.384       .  S
O1792     Zr1797   2.390       .  S
O1792     Zr1798   2.372       .  S
O1792      H1827   0.964       .  S
O1793     Zr1796   2.403       .  S
O1793     Zr1813   2.387       .  S
O1793      H1830   0.964       .  S
O1794     Zr1797   2.388       .  S
O1794     Zr1813   2.403       .  S
Zr1795     O1820   2.441       .  S
Zr1795     O1814   2.434       .  S
Zr1795     O1822   2.435       .  S
Zr1795     O1810   2.438       .  S
Zr1795     O1801   2.402       .  S
Zr1795     O1802   2.404       .  S
Zr1795     O1803   2.375       .  S
Zr1795     O1804   2.386       .  S
Zr1796     O1815   2.437       .  S
Zr1796     O1808   2.436       .  S
Zr1796     O1809   2.425       .  S
Zr1796     O1802   2.393       .  S
Zr1796     O1803   2.388       .  S
Zr1797     O1799   2.434   1_545  S
Zr1797     O1821   2.437       .  S
Zr1797     O1823   2.430       .  S
Zr1797     O1801   2.393       .  S
Zr1797     O1804   2.394       .  S
Zr1798     O1824   2.434       .  S
Zr1798     O1825   2.434       .  S
Zr1798     O1800   2.440       .  S
Zr1798     O1801   2.392       .  S
Zr1798     O1802   2.384       .  S
O1799      H1836   0.990       .  S
O1800      H1831   0.990       .  S
O1800      H1845   0.990       .  S
O1802      H1828   0.966       .  S
O1803     Zr1813   2.371       .  S
O1804     Zr1813   2.361       .  S
O1804      H1829   0.965       .  S
C1805      C2659   1.479       .  S
C1806      C2787   1.479       .  S
C1807      C2707   1.471       .  S
O1808      H1844   0.990       .  S
O1809      C1811   1.284       .  A
O1810      C1811   1.285       .  A
C1811      C2800   1.472       .  S
O1812     Zr1813   2.437       .  S
O1812      H1841   0.990       .  S
Zr1813     O1816   2.437       .  S
Zr1813     O1817   2.440       .  S
Zr1813     O1818   2.432       .  S
O1814      C1819   1.284       .  A
O1815      H1832   0.990       .  S
O1815      H1847   0.990       .  S
O1816      H1833   0.990       .  S
O1817      H1837   0.990       .  S
O1817      H1846   0.990       .  S
O1818      C1819   1.284       .  A
C1819      C2672   1.477       .  S
O1820      H1839   0.990       .  S
O1820      H1843   0.990       .  S
O1821      H1835   0.990       .  S
O1821      H1842   0.990       .  S
O1822      C1826   1.286       .  A
O1823      C1826   1.285       .  A
O1824      H1834   0.990       .  S
O1825      H1838   0.990       .  S
C1826      C2691   1.473       .  S
Zr1849     O1850   2.439       .  S
Zr1849     O1851   2.426       .  S
Zr1849     O1852   2.443       .  S
Zr1849     O1855   2.448       .  S
Zr1849     O1857   2.386       .  S
Zr1849     O1858   2.384       .  S
Zr1849     O1859   2.406       .  S
Zr1849     O1860   2.395       .  S
O1850      H1906   0.990       .  S
O1850      H1914   0.990       .  S
O1851      C1871   1.283   1_545  A
O1852      C1873   1.286       .  A
O1853     Zr1863   2.412       .  S
O1853      C1872   1.281       .  A
O1854     Zr1862   2.441       .  S
O1854      C1873   1.286       .  A
O1855      C1872   1.287       .  A
O1856     Zr1864   2.417       .  S
O1856      C1871   1.281   1_545  A
O1857     Zr1862   2.388       .  S
O1857     Zr1864   2.368       .  S
O1858     Zr1863   2.389       .  S
O1858     Zr1864   2.381       .  S
O1858      H1893   0.965       .  S
O1859     Zr1862   2.398       .  S
O1859     Zr1879   2.403       .  S
O1859      H1896   0.966       .  S
O1860     Zr1863   2.387       .  S
O1860     Zr1879   2.386       .  S
Zr1861     O1886   2.440       .  S
Zr1861     O1880   2.463       .  S
Zr1861     O1888   2.462       .  S
Zr1861     O1876   2.427       .  S
Zr1861     O1867   2.389       .  S
Zr1861     O1868   2.421       .  S
Zr1861     O1869   2.380       .  S
Zr1861     O1870   2.382       .  S
Zr1862     O1881   2.435       .  S
Zr1862     O1874   2.435       .  S
Zr1862     O1875   2.430       .  S
Zr1862     O1868   2.398       .  S
Zr1862     O1869   2.393       .  S
Zr1863     O1865   2.436       .  S
Zr1863     O1887   2.442       .  S
Zr1863     O1889   2.427       .  S
Zr1863     O1867   2.380       .  S
Zr1863     O1870   2.394       .  S
Zr1864     O1890   2.436       .  S
Zr1864     O1891   2.436       .  S
Zr1864     O1866   2.434   1_545  S
Zr1864     O1867   2.376       .  S
Zr1864     O1868   2.400       .  S
O1865      H1902   0.990       .  S
O1866      H1897   0.990       .  S
O1866      H1911   0.990       .  S
O1868      H1894   0.967       .  S
O1869     Zr1879   2.373       .  S
O1870     Zr1879   2.392       .  S
O1870      H1895   0.966       .  S
C1871      C2864   1.468       .  S
C1872      C2736   1.474       .  S
C1873      C2915   1.484       .  S
O1874      H1910   0.990       .  S
O1875      C1877   1.284       .  A
O1876      C1877   1.282       .  A
C1877      C2720   1.472       .  S
O1878     Zr1879   2.438       .  S
O1878      H1907   0.990       .  S
Zr1879     O1882   2.436       .  S
Zr1879     O1883   2.438       .  S
Zr1879     O1884   2.409       .  S
O1880      C1885   1.288       .  A
O1881      H1898   0.990       .  S
O1881      H1913   0.990       .  S
O1882      H1899   0.990       .  S
O1883      H1903   0.990       .  S
O1883      H1912   0.990       .  S
O1884      C1885   1.280       .  A
C1885      C2880   1.482       .  S
O1886      H1905   0.990       .  S
O1886      H1909   0.991       .  S
O1887      H1901   0.990       .  S
O1887      H1908   0.990       .  S
O1888      C1892   1.288       .  A
O1889      C1892   1.284       .  A
O1890      H1900   0.990       .  S
O1891      H1904   0.990       .  S
C1892      C2640   1.477       .  S
Zr1915     O1916   2.444       .  S
Zr1915     O1917   2.472       .  S
Zr1915     O1918   2.453       .  S
Zr1915     O1921   2.432       .  S
Zr1915     O1923   2.379       .  S
Zr1915     O1924   2.386       .  S
Zr1915     O1925   2.416       .  S
Zr1915     O1926   2.421       .  S
O1916      H1972   0.990       .  S
O1916      H1980   0.991       .  S
O1917      C1937   1.290       .  A
O1918      C1939   1.287       .  A
O1919     Zr1929   2.439       .  S
O1919      C1938   1.286       .  A
O1920     Zr1928   2.431       .  S
O1920      C1939   1.284       .  A
O1921      C1938   1.284       .  A
O1922     Zr1930   2.389       .  S
O1922      C1937   1.276       .  A
O1923     Zr1928   2.395       .  S
O1923     Zr1930   2.385       .  S
O1924     Zr1929   2.390       .  S
O1924     Zr1930   2.376       .  S
O1924      H1959   0.965       .  S
O1925     Zr1928   2.399       .  S
O1925     Zr1945   2.393       .  S
O1925      H1962   0.965       .  S
O1926     Zr1929   2.394       .  S
O1926     Zr1945   2.410       .  S
Zr1927     O1952   2.442       .  S
Zr1927     O1946   2.415       .  S
Zr1927     O1954   2.430       .  S
Zr1927     O1942   2.438       .  S
Zr1927     O1933   2.397       .  S
Zr1927     O1934   2.395       .  S
Zr1927     O1935   2.380       .  S
Zr1927     O1936   2.384       .  S
Zr1928     O1947   2.438       .  S
Zr1928     O1940   2.433       .  S
Zr1928     O1941   2.433       .  S
Zr1928     O1934   2.395       .  S
Zr1928     O1935   2.388       .  S
Zr1929     O1931   2.435       .  S
Zr1929     O1953   2.435       .  S
Zr1929     O1955   2.439       .  S
Zr1929     O1933   2.392       .  S
Zr1929     O1936   2.390       .  S
Zr1930     O1956   2.435       .  S
Zr1930     O1957   2.436       .  S
Zr1930     O1932   2.437       .  S
Zr1930     O1933   2.391       .  S
Zr1930     O1934   2.374       .  S
O1931      H1968   0.990   1_655  S
O1932      H1963   0.990       .  S
O1932      H1977   0.990       .  S
O1934      H1960   0.967       .  S
O1935     Zr1945   2.371       .  S
O1936     Zr1945   2.361       .  S
O1936      H1961   0.964       .  S
C1937      C2752   1.479   1_545  S
C1938      C2656   1.478   1_655  S
C1939      C2643   1.479       .  S
O1940      H1976   0.990       .  S
O1941      C1943   1.287       .  A
O1942      C1943   1.285       .  A
C1943      C2675   1.475       .  S
O1944     Zr1945   2.440       .  S
O1944      H1973   0.990       .  S
Zr1945     O1948   2.437       .  S
Zr1945     O1949   2.439       .  S
Zr1945     O1950   2.454       .  S
O1946      C1951   1.281       .  A
O1947      H1964   0.990       .  S
O1947      H1979   0.990       .  S
O1948      H1965   0.990       .  S
O1949      H1969   0.990       .  S
O1949      H1978   0.990       .  S
O1950      C1951   1.288       .  A
C1951      C2771   1.480       .  S
O1952      H1971   0.990       .  S
O1952      H1975   0.990       .  S
O1953      H1967   0.990       .  S
O1953      H1974   0.990       .  S
O1954      C1958   1.286       .  A
O1955      C1958   1.286       .  A
O1956      H1966   0.990       .  S
O1957      H1970   0.990       .  S
C1958      C2624   1.475       .  S
Zr1981     O1982   2.442       .  S
Zr1981     O1983   2.455       .  S
Zr1981     O1984   2.459       .  S
Zr1981     O1987   2.412       .  S
Zr1981     O1989   2.379       .  S
Zr1981     O1990   2.391       .  S
Zr1981     O1991   2.405       .  S
Zr1981     O1992   2.417       .  S
O1982      H2038   0.990       .  S
O1982      H2046   0.991       .  S
O1983      C2003   1.286       .  A
O1984      C2005   1.287       .  A
O1985     Zr1995   2.432       .  S
O1985      C2004   1.285       .  A
O1986     Zr1994   2.422       .  S
O1986      C2005   1.281       .  A
O1987      C2004   1.281       .  A
O1988     Zr1996   2.420       .  S
O1988      C2003   1.281       .  A
O1989     Zr1994   2.401       .  S
O1989     Zr1996   2.387       .  S
O1990     Zr1995   2.405       .  S
O1990     Zr1996   2.371       .  S
O1990      H2025   0.966       .  S
O1991     Zr1994   2.397       .  S
O1991     Zr2011   2.387       .  S
O1991      H2028   0.963       .  S
O1992     Zr1995   2.399       .  S
O1992     Zr2011   2.393       .  S
Zr1993     O2018   2.444       .  S
Zr1993     O2012   2.433       .  S
Zr1993     O2020   2.424       .  S
Zr1993     O2008   2.430       .  S
Zr1993     O1999   2.402       .  S
Zr1993     O2000   2.405       .  S
Zr1993     O2001   2.378       .  S
Zr1993     O2002   2.383       .  S
Zr1994     O2013   2.437       .  S
Zr1994     O2006   2.434       .  S
Zr1994     O2007   2.422       .  S
Zr1994     O2000   2.397       .  S
Zr1994     O2001   2.384       .  S
Zr1995     O1997   2.437       .  S
Zr1995     O2019   2.435       .  S
Zr1995     O2021   2.468       .  S
Zr1995     O1999   2.395       .  S
Zr1995     O2002   2.384       .  S
Zr1996     O2022   2.435       .  S
Zr1996     O2023   2.436       .  S
Zr1996     O1998   2.437       .  S
Zr1996     O1999   2.403       .  S
Zr1996     O2000   2.393       .  S
O1997      H2034   0.990       .  S
O1998      H2029   0.991       .  S
O1998      H2043   0.990       .  S
O2000      H2026   0.966       .  S
O2001     Zr2011   2.376       .  S
O2002     Zr2011   2.366       .  S
O2002      H2027   0.964       .  S
C2003      C2560   1.483       .  S
C2004      C2592   1.467       .  S
C2005      C2608   1.476       .  S
O2006      H2042   0.990       .  S
O2007      C2009   1.284       .  A
O2008      C2009   1.283       .  A
C2009      C2579   1.470       .  S
O2010     Zr2011   2.439       .  S
O2010      H2039   0.990       .  S
Zr2011     O2014   2.439       .  S
Zr2011     O2015   2.441       .  S
Zr2011     O2016   2.422       .  S
O2012      C2017   1.285       .  A
O2013      H2030   0.990       .  S
O2013      H2045   0.990       .  S
O2014      H2031   0.990       .  S
O2015      H2035   0.990       .  S
O2015      H2044   0.990       .  S
O2016      C2017   1.282       .  A
C2017      C2544   1.473       .  S
O2018      H2037   0.990       .  S
O2018      H2041   0.990       .  S
O2019      H2033   0.990       .  S
O2019      H2040   0.990       .  S
O2020      C2024   1.284       .  A
O2021      C2024   1.291       .  A
O2022      H2032   0.990       .  S
O2023      H2036   0.990       .  S
C2024      C2816   1.485       .  S
Zr2047     O2048   2.439       .  S
Zr2047     O2049   2.412       .  S
Zr2047     O2050   2.422       .  S
Zr2047     O2053   2.417       .  S
Zr2047     O2055   2.376       .  S
Zr2047     O2056   2.379       .  S
Zr2047     O2057   2.391       .  S
Zr2047     O2058   2.392       .  S
O2048      H2104   0.991       .  S
O2048      H2112   0.990       .  S
O2049      C2069   1.280       .  A
O2050      C2071   1.282       .  A
O2051     Zr2061   2.431       .  S
O2051      C2070   1.285       .  A
O2052     Zr2060   2.443       .  S
O2052      C2071   1.286       .  A
O2053      C2070   1.282       .  A
O2054     Zr2062   2.420       .  S
O2054      C2069   1.283       .  A
O2055     Zr2060   2.385       .  S
O2055     Zr2062   2.367       .  S
O2056     Zr2061   2.386       .  S
O2056     Zr2062   2.378       .  S
O2056      H2091   0.964       .  S
O2057     Zr2060   2.397       .  S
O2057     Zr2077   2.391       .  S
O2057      H2094   0.966       .  S
O2058     Zr2061   2.391       .  S
O2058     Zr2077   2.384       .  S
Zr2059     O2084   2.445       .  S
Zr2059     O2078   2.443       .  S
Zr2059     O2086   2.449       .  S
Zr2059     O2074   2.432       .  S
Zr2059     O2065   2.386       .  S
Zr2059     O2066   2.415       .  S
Zr2059     O2067   2.385       .  S
Zr2059     O2068   2.389       .  S
Zr2060     O2079   2.435       .  S
Zr2060     O2072   2.433       .  S
Zr2060     O2073   2.428       .  S
Zr2060     O2066   2.404       .  S
Zr2060     O2067   2.399       .  S
Zr2061     O2063   2.436       .  S
Zr2061     O2085   2.442       .  S
Zr2061     O2087   2.436       .  S
Zr2061     O2065   2.380       .  S
Zr2061     O2068   2.389       .  S
Zr2062     O2088   2.434       .  S
Zr2062     O2089   2.436       .  S
Zr2062     O2064   2.438       .  S
Zr2062     O2065   2.377       .  S
Zr2062     O2066   2.403       .  S
O2063      H2100   0.990       .  S
O2064      H2095   0.990       .  S
O2064      H2109   0.990       .  S
O2066      H2092   0.967       .  S
O2067     Zr2077   2.379       .  S
O2068     Zr2077   2.393       .  S
O2068      H2093   0.966       .  S
C2069      C2499   1.462       .  S
C2070      C2531   1.468       .  S
C2071      C3683   1.476       .  S
O2072      H2108   0.990       .  S
O2073      C2075   1.284       .  A
O2074      C2075   1.282       .  A
C2075      C2515   1.472       .  S
O2076     Zr2077   2.440       .  S
O2076      H2105   0.991       .  S
Zr2077     O2080   2.436       .  S
Zr2077     O2081   2.440       .  S
Zr2077     O2082   2.393       .  S
O2078      C2083   1.284       .  A
O2079      H2096   0.990       .  S
O2079      H2111   0.990       .  S
O2080      H2097   0.990       .  S
O2081      H2101   0.990       .  S
O2081      H2110   0.990       .  S
O2082      C2083   1.277       .  A
C2083      C2480   1.466       .  S
O2084      H2103   0.991       .  S
O2084      H2107   0.990       .  S
O2085      H2099   0.990       .  S
O2085      H2106   0.990       .  S
O2086      C2090   1.287       .  A
O2087      C2090   1.285       .  A
O2088      H2098   0.990       .  S
O2089      H2102   0.990       .  S
C2090      C2611   1.475       .  S
Zr2113     O2114   2.446       .  S
Zr2113     O2115   2.480       .  S
Zr2113     O2116   2.465       .  S
Zr2113     O2119   2.431       .  S
Zr2113     O2121   2.383       .  S
Zr2113     O2122   2.392       .  S
Zr2113     O2123   2.417   1_455  S
Zr2113     O2124   2.425       .  S
O2114      H2170   0.990       .  S
O2114      H2178   0.991       .  S
O2115      C2135   1.291       .  A
O2116      C2137   1.288       .  A
O2117     Zr2127   2.429       .  S
O2117      C2136   1.284       .  A
O2118     Zr2126   2.424       .  S
O2118      C2137   1.282   1_655  A
O2119      C2136   1.283       .  A
O2120     Zr2128   2.380       .  S
O2120      C2135   1.274       .  A
O2121     Zr2126   2.397   1_455  S
O2121     Zr2128   2.389       .  S
O2122     Zr2127   2.396       .  S
O2122     Zr2128   2.379       .  S
O2122      H2157   0.964       .  S
O2123     Zr2126   2.401       .  S
O2123     Zr2143   2.388       .  S
O2123      H2160   0.964       .  S
O2124     Zr2127   2.393       .  S
O2124     Zr2143   2.401   1_455  S
Zr2125     O2150   2.444       .  S
Zr2125     O2144   2.411       .  S
Zr2125     O2152   2.420       .  S
Zr2125     O2140   2.432       .  S
Zr2125     O2131   2.395   1_655  S
Zr2125     O2132   2.395       .  S
Zr2125     O2133   2.376       .  S
Zr2125     O2134   2.384       .  S
Zr2126     O2145   2.435       .  S
Zr2126     O2138   2.434       .  S
Zr2126     O2139   2.432       .  S
Zr2126     O2132   2.393       .  S
Zr2126     O2133   2.382       .  S
Zr2127     O2129   2.437       .  S
Zr2127     O2151   2.434       .  S
Zr2127     O2153   2.439       .  S
Zr2127     O2131   2.393       .  S
Zr2127     O2134   2.385   1_455  S
Zr2128     O2154   2.434       .  S
Zr2128     O2155   2.435       .  S
Zr2128     O2130   2.439       .  S
Zr2128     O2131   2.389       .  S
Zr2128     O2132   2.375   1_455  S
O2129      H2166   0.990       .  S
O2130      H2161   0.991       .  S
O2130      H2175   0.990       .  S
O2132      H2158   0.965       .  S
O2133     Zr2143   2.374       .  S
O2134     Zr2143   2.357       .  S
O2134      H2159   0.964       .  S
C2135      C2448   1.480       .  S
C2136      C2563   1.474       .  S
C2137      C2464   1.479       .  S
O2138      H2174   0.990       .  S
O2139      C2141   1.286       .  A
O2140      C2141   1.284       .  A
C2141      C2547   1.473       .  S
O2142     Zr2143   2.437       .  S
O2142      H2171   0.990       .  S
Zr2143     O2146   2.434       .  S
Zr2143     O2147   2.442       .  S
Zr2143     O2148   2.427       .  S
O2144      C2149   1.279       .  A
O2145      H2162   0.990       .  S
O2145      H2177   0.990       .  S
O2146      H2163   0.990       .  S
O2147      H2167   0.990       .  S
O2147      H2176   0.990       .  S
O2148      C2149   1.284       .  A
C2149      C2432   1.467       .  S
O2150      H2169   0.990       .  S
O2150      H2173   0.990       .  S
O2151      H2165   0.990       .  S
O2151      H2172   0.990       .  S
O2152      C2156   1.283       .  A
O2153      C2156   1.285   1_455  A
O2154      H2164   0.990       .  S
O2155      H2168   0.990   1_455  S
C2156      C2627   1.469       .  S
Zr2179     O2180   2.439       .  S
Zr2179     O2181   2.401       .  S
Zr2179     O2182   2.427       .  S
Zr2179     O2185   2.425       .  S
Zr2179     O2187   2.377       .  S
Zr2179     O2188   2.386       .  S
Zr2179     O2189   2.388   1_455  S
Zr2179     O2190   2.391       .  S
O2180      H2236   0.990       .  S
O2180      H2244   0.990       .  S
O2181      C2201   1.278       .  A
O2182      C2203   1.284       .  A
O2183     Zr2193   2.408       .  S
O2183      C2202   1.280       .  A
O2184     Zr2192   2.435   1_455  S
O2184      C2203   1.285       .  A
O2185      C2202   1.284       .  A
O2186     Zr2194   2.439       .  S
O2186      C2201   1.286       .  A
O2187     Zr2192   2.382   1_455  S
O2187     Zr2194   2.364       .  S
O2188     Zr2193   2.386       .  S
O2188     Zr2194   2.372       .  S
O2188      H2223   0.963       .  S
O2189     Zr2192   2.391       .  S
O2189     Zr2209   2.385       .  S
O2189      H2226   0.966       .  S
O2190     Zr2193   2.386       .  S
O2190     Zr2209   2.377   1_455  S
Zr2191     O2216   2.443       .  S
Zr2191     O2210   2.472       .  S
Zr2191     O2218   2.462       .  S
Zr2191     O2206   2.437       .  S
Zr2191     O2197   2.398   1_655  S
Zr2191     O2198   2.425       .  S
Zr2191     O2199   2.387       .  S
Zr2191     O2200   2.385       .  S
Zr2192     O2211   2.435       .  S
Zr2192     O2204   2.434       .  S
Zr2192     O2205   2.411       .  S
Zr2192     O2198   2.404       .  S
Zr2192     O2199   2.393       .  S
Zr2193     O2195   2.435       .  S
Zr2193     O2217   2.438       .  S
Zr2193     O2219   2.416       .  S
Zr2193     O2197   2.381       .  S
Zr2193     O2200   2.381   1_455  S
Zr2194     O2220   2.435       .  S
Zr2194     O2221   2.436       .  S
Zr2194     O2196   2.436       .  S
Zr2194     O2197   2.391       .  S
Zr2194     O2198   2.407   1_455  S
O2195      H2232   0.990       .  S
O2196      H2227   0.990       .  S
O2196      H2241   0.990       .  S
O2198      H2224   0.965       .  S
O2199     Zr2209   2.383       .  S
O2200     Zr2209   2.393       .  S
O2200      H2225   0.966       .  S
C2201      C2416   1.467       .  S
C2202      C2496   1.462       .  S
C2203      C3488   1.475       .  S
O2204      H2240   0.990       .  S
O2205      C2207   1.280       .  A
O2206      C2207   1.283       .  A
C2207      C2483   1.466       .  S
O2208     Zr2209   2.439       .  S
O2208      H2237   0.990       .  S
Zr2209     O2212   2.437       .  S
Zr2209     O2213   2.440       .  S
Zr2209     O2214   2.367       .  S
O2210      C2215   1.289       .  A
O2211      H2228   0.990       .  S
O2211      H2243   0.990       .  S
O2212      H2229   0.990       .  S
O2213      H2233   0.990       .  S
O2213      H2242   0.989       .  S
O2214      C2215   1.272       .  A
C2215      C2403   1.469       .  S
O2216      H2235   0.991       .  S
O2216      H2239   0.990       .  S
O2217      H2231   0.990       .  S
O2217      H2238   0.990       .  S
O2218      C2222   1.289       .  A
O2219      C2222   1.281   1_455  A
O2220      H2230   0.990       .  S
O2221      H2234   0.990   1_455  S
C2222      C2467   1.478       .  S
Zr2245     O2246   2.442       .  S
Zr2245     O2247   2.448       .  S
Zr2245     O2248   2.451       .  S
Zr2245     O2251   2.413       .  S
Zr2245     O2253   2.376       .  S
Zr2245     O2254   2.383       .  S
Zr2245     O2255   2.404       .  S
Zr2245     O2256   2.416       .  S
O2246      H2302   0.990       .  S
O2246      H2310   0.990       .  S
O2247      C2267   1.285       .  A
O2248      C2269   1.286       .  A
O2249     Zr2259   2.453       .  S
O2249      C2268   1.289       .  A
O2250     Zr2258   2.420   1_565  S
O2250      C2269   1.281       .  A
O2251      C2268   1.280       .  A
O2252     Zr2260   2.386       .  S
O2252      C2267   1.275       .  A
O2253     Zr2258   2.388   1_565  S
O2253     Zr2260   2.389       .  S
O2254     Zr2259   2.395       .  S
O2254     Zr2260   2.376       .  S
O2254      H2289   0.965       .  S
O2255     Zr2258   2.398   1_565  S
O2255     Zr2275   2.388   1_565  S
O2255      H2292   0.964       .  S
O2256     Zr2259   2.396       .  S
O2256     Zr2275   2.403   1_565  S
Zr2257     O2282   2.441       .  S
Zr2257     O2276   2.410       .  S
Zr2257     O2284   2.426       .  S
Zr2257     O2272   2.444       .  S
Zr2257     O2263   2.395   1_545  S
Zr2257     O2264   2.393       .  S
Zr2257     O2265   2.374       .  S
Zr2257     O2266   2.389       .  S
Zr2258     O2277   2.438       .  S
Zr2258     O2270   2.435       .  S
Zr2258     O2271   2.407       .  S
Zr2258     O2264   2.394       .  S
Zr2258     O2265   2.386       .  S
Zr2259     O2261   2.435       .  S
Zr2259     O2283   2.438       .  S
Zr2259     O2285   2.451       .  S
Zr2259     O2263   2.399       .  S
Zr2259     O2266   2.394   1_565  S
Zr2260     O2286   2.436       .  S
Zr2260     O2287   2.437       .  S
Zr2260     O2262   2.438       .  S
Zr2260     O2263   2.386       .  S
Zr2260     O2264   2.382   1_565  S
O2261      H2298   0.990       .  S
O2262      H2293   0.990       .  S
O2262      H2307   0.990       .  S
O2264      H2290   0.966       .  S
O2265     Zr2275   2.369       .  S
O2266     Zr2275   2.367       .  S
O2266      H2291   0.965       .  S
C2267      C2595   1.466       .  S
C2268      C2451   1.477       .  S
C2269      C2384   1.475       .  S
O2270      H2306   0.990       .  S
O2271      C2273   1.281       .  A
O2272      C2273   1.286       .  A
C2273      C2435   1.469       .  S
O2274     Zr2275   2.440   1_565  S
O2274      H2303   0.990   1_565  S
Zr2275     O2278   2.437       .  S
Zr2275     O2279   2.442       .  S
Zr2275     O2280   2.437       .  S
O2276      C2281   1.280       .  A
O2277      H2294   0.990       .  S
O2277      H2309   0.990       .  S
O2278      H2295   0.990       .  S
O2279      H2299   0.990       .  S
O2279      H2308   0.990   1_545  S
O2280      C2281   1.285       .  A
C2281      C2576   1.470       .  S
O2282      H2301   0.990       .  S
O2282      H2305   0.990       .  S
O2283      H2297   0.990       .  S
O2283      H2304   0.990       .  S
O2284      C2288   1.285       .  A
O2285      C2288   1.289   1_565  A
O2286      H2296   0.990       .  S
O2287      H2300   0.990   1_565  S
C2288      C2688   1.478       .  S
Zr2311     O2312   2.440       .  S
Zr2311     O2313   2.422       .  S
Zr2311     O2314   2.443       .  S
Zr2311     O2317   2.445       .  S
Zr2311     O2319   2.385       .  S
Zr2311     O2320   2.392       .  S
Zr2311     O2321   2.403       .  S
Zr2311     O2322   2.396       .  S
O2312      H2368   0.990       .  S
O2312      H2376   0.990       .  S
O2313      C2333   1.283       .  A
O2314      C2335   1.287       .  A
O2315     Zr2325   2.408       .  S
O2315      C2334   1.280       .  A
O2316     Zr2324   2.442   1_565  S
O2316      C2335   1.287       .  A
O2317      C2334   1.287       .  A
O2318     Zr2326   2.425       .  S
O2318      C2333   1.283       .  A
O2319     Zr2324   2.390   1_565  S
O2319     Zr2326   2.362       .  S
O2320     Zr2325   2.392       .  S
O2320     Zr2326   2.380       .  S
O2320      H2355   0.964       .  S
O2321     Zr2324   2.397   1_565  S
O2321     Zr2341   2.395   1_565  S
O2321      H2358   0.966       .  S
O2322     Zr2325   2.390       .  S
O2322     Zr2341   2.383   1_565  S
Zr2323     O2348   2.441       .  S
Zr2323     O2342   2.462       .  S
Zr2323     O2350   2.461       .  S
Zr2323     O2338   2.415       .  S
Zr2323     O2329   2.382   1_545  S
Zr2323     O2330   2.430       .  S
Zr2323     O2331   2.386       .  S
Zr2323     O2332   2.383       .  S
Zr2324     O2343   2.435       .  S
Zr2324     O2336   2.434       .  S
Zr2324     O2337   2.448       .  S
Zr2324     O2330   2.401       .  S
Zr2324     O2331   2.391       .  S
Zr2325     O2327   2.436       .  S
Zr2325     O2349   2.438       .  S
Zr2325     O2351   2.440       .  S
Zr2325     O2329   2.361       .  S
Zr2325     O2332   2.390   1_565  S
Zr2326     O2352   2.438       .  S
Zr2326     O2353   2.436       .  S
Zr2326     O2328   2.435       .  S
Zr2326     O2329   2.372       .  S
Zr2326     O2330   2.412   1_565  S
O2327      H2364   0.990       .  S
O2328      H2359   0.990       .  S
O2328      H2373   0.990       .  S
O2330      H2356   0.968       .  S
O2331     Zr2341   2.381       .  S
O2332     Zr2341   2.401       .  S
O2332      H2357   0.965       .  S
C2333      C2528   1.468       .  S
C2334      C2419   1.470       .  S
C2335      C3555   1.484       .  S
O2336      H2372   0.990       .  S
O2337      C2339   1.288       .  A
O2338      C2339   1.279       .  A
C2339      C2400   1.471       .  S
O2340     Zr2341   2.441   1_565  S
O2340      H2369   0.990       .  S
Zr2341     O2344   2.440       .  S
Zr2341     O2345   2.438   1_545  S
Zr2341     O2346   2.392       .  S
O2342      C2347   1.287       .  A
O2343      H2360   0.990       .  S
O2343      H2375   0.990       .  S
O2344      H2361   0.990       .  S
O2345      H2365   0.990   1_565  S
O2345      H2374   0.990       .  S
O2346      C2347   1.276       .  A
C2347      C2512   1.473       .  S
O2348      H2367   0.991       .  S
O2348      H2371   0.990       .  S
O2349      H2363   0.990       .  S
O2349      H2370   0.990       .  S
O2350      C2354   1.288   1_545  A
O2351      C2354   1.286       .  A
O2352      H2362   0.990       .  S
O2353      H2366   0.990       .  S
C2354      C2387   1.479       .  S
C2377      S2383   1.708       .  A
C2377      C2382   1.386       .  A
C2377      C2378   1.402   1_554  A
C2378      C2379   1.403       .  A
C2378      H2389   1.083       .  S
C2379      C2388   1.370       .  A
C2379      C2380   1.386   1_565  A
C2380      S2386   1.711       .  A
C2380      C2381   1.403   1_556  A
C2381      C2382   1.405   1_545  A
C2381      H2390   1.083       .  S
C2382      C2385   1.371       .  A
S2383      C2384   1.724       .  A
C2384      C2385   1.390       .  A
C2385      H2391   1.083   1_565  S
S2386      C2387   1.726   1_545  A
C2387      C2388   1.389       .  A
C2388      H2392   1.083       .  S
C2393      S2399   1.706       .  A
C2393      C2398   1.387       .  A
C2393      C2394   1.406       .  A
C2394      C2395   1.403       .  A
C2394      H2405   1.083       .  S
C2395      C2404   1.377       .  A
C2395      C2396   1.388       .  A
C2396      S2402   1.690       .  A
C2396      C2397   1.396       .  A
C2397      C2398   1.395       .  A
C2397      H2406   1.083       .  S
C2398      C2401   1.368       .  A
S2399      C2400   1.729       .  A
C2400      C2401   1.382       .  A
C2401      H2407   1.083       .  S
S2402      C2403   1.726       .  A
C2403      C2404   1.386       .  A
C2404      H2408   1.083       .  S
C2409      S2415   1.705       .  A
C2409      C2414   1.387       .  A
C2409      C2410   1.405       .  A
C2410      C2411   1.404       .  A
C2410      H2421   1.083       .  S
C2411      C2420   1.377       .  A
C2411      C2412   1.388       .  A
C2412      S2418   1.691       .  A
C2412      C2413   1.395       .  A
C2413      C2414   1.394       .  A
C2413      H2422   1.083       .  S
C2414      C2417   1.366       .  A
S2415      C2416   1.727       .  A
C2416      C2417   1.381       .  A
C2417      H2423   1.083       .  S
S2418      C2419   1.723       .  A
C2419      C2420   1.388       .  A
C2420      H2424   1.083       .  S
C2425      S2431   1.707       .  A
C2425      C2430   1.387       .  A
C2425      C2426   1.404       .  A
C2426      C2427   1.404       .  A
C2426      H2437   1.083       .  S
C2427      C2436   1.374       .  A
C2427      C2428   1.388       .  A
C2428      S2434   1.696       .  A
C2428      C2429   1.395       .  A
C2429      C2430   1.395       .  A
C2429      H2438   1.083       .  S
C2430      C2433   1.364       .  A
S2431      C2432   1.726       .  A
C2432      C2433   1.382       .  A
C2433      H2439   1.083       .  S
S2434      C2435   1.722       .  A
C2435      C2436   1.388       .  A
C2436      H2440   1.083       .  S
C2441      S2447   1.694       .  A
C2441      C2446   1.387       .  A
C2441      C2442   1.400       .  A
C2442      C2443   1.398       .  A
C2442      H2453   1.083       .  S
C2443      C2452   1.374       .  A
C2443      C2444   1.387       .  A
C2444      S2450   1.705       .  A
C2444      C2445   1.407       .  A
C2445      C2446   1.405       .  A
C2445      H2454   1.083       .  S
C2446      C2449   1.382       .  A
S2447      C2448   1.728       .  A
C2448      C2449   1.389       .  A
C2449      H2455   1.083       .  S
S2450      C2451   1.729       .  A
C2451      C2452   1.385       .  A
C2452      H2456   1.083       .  S
C2457      S2463   1.706       .  A
C2457      C2462   1.386   1_655  A
C2457      C2458   1.404   1_554  A
C2458      C2459   1.403       .  A
C2458      H2469   1.083       .  S
C2459      C2468   1.376       .  A
C2459      C2460   1.387   1_655  A
C2460      S2466   1.704       .  A
C2460      C2461   1.404   1_556  A
C2461      C2462   1.404       .  A
C2461      H2470   1.083       .  S
C2462      C2465   1.376       .  A
S2463      C2464   1.727   1_655  A
C2464      C2465   1.390       .  A
C2465      H2471   1.083       .  S
S2466      C2467   1.727   1_455  A
C2467      C2468   1.388       .  A
C2468      H2472   1.083       .  S
C2473      S2479   1.711       .  A
C2473      C2478   1.386       .  A
C2473      C2474   1.401       .  A
C2474      C2475   1.404       .  A
C2474      H2485   1.083       .  S
C2475      C2484   1.368       .  A
C2475      C2476   1.387       .  A
C2476      S2482   1.700       .  A
C2476      C2477   1.394       .  A
C2477      C2478   1.396       .  A
C2477      H2486   1.083       .  S
C2478      C2481   1.359       .  A
S2479      C2480   1.722       .  A
C2480      C2481   1.385       .  A
C2481      H2487   1.084       .  S
S2482      C2483   1.721       .  A
C2483      C2484   1.387       .  A
C2484      H2488   1.083       .  S
C2489      S2495   1.695       .  A
C2489      C2494   1.388       .  A
C2489      C2490   1.394       .  A
C2490      C2491   1.395       .  A
C2490      H2501   1.083       .  S
C2491      C2500   1.361       .  A
C2491      C2492   1.387       .  A
C2492      S2498   1.705       .  A
C2492      C2493   1.401       .  A
C2493      C2494   1.401       .  A
C2493      H2502   1.083       .  S
C2494      C2497   1.369       .  A
S2495      C2496   1.722       .  A
C2496      C2497   1.385       .  A
C2497      H2503   1.083       .  S
S2498      C2499   1.723       .  A
C2499      C2500   1.382       .  A
C2500      H2504   1.083       .  S
C2505      S2511   1.697       .  A
C2505      C2510   1.387       .  A
C2505      C2506   1.400       .  A
C2506      C2507   1.399       .  A
C2506      H2517   1.083       .  S
C2507      C2516   1.371       .  A
C2507      C2508   1.387       .  A
C2508      S2514   1.703       .  A
C2508      C2509   1.403       .  A
C2509      C2510   1.402       .  A
C2509      H2518   1.083       .  S
C2510      C2513   1.376       .  A
S2511      C2512   1.725       .  A
C2512      C2513   1.388       .  A
C2513      H2519   1.083       .  S
S2514      C2515   1.725       .  A
C2515      C2516   1.386       .  A
C2516      H2520   1.083       .  S
C2521      S2527   1.701       .  A
C2521      C2526   1.387       .  A
C2521      C2522   1.397       .  A
C2522      C2523   1.398       .  A
C2522      H2533   1.083       .  S
C2523      C2532   1.365       .  A
C2523      C2524   1.387       .  A
C2524      S2530   1.707       .  A
C2524      C2525   1.402       .  A
C2525      C2526   1.402       .  A
C2525      H2534   1.083       .  S
C2526      C2529   1.370       .  A
S2527      C2528   1.722       .  A
C2528      C2529   1.387       .  A
C2529      H2535   1.083       .  S
S2530      C2531   1.724       .  A
C2531      C2532   1.384       .  A
C2532      H2536   1.083       .  S
C2537      S2543   1.703       .  A
C2537      C2542   1.387       .  A
C2537      C2538   1.399       .  A
C2538      C2539   1.400       .  A
C2538      H2549   1.083       .  S
C2539      C2548   1.367       .  A
C2539      C2540   1.386       .  A
C2540      S2546   1.709       .  A
C2540      C2541   1.403       .  A
C2541      C2542   1.404       .  A
C2541      H2550   1.083       .  S
C2542      C2545   1.372       .  A
S2543      C2544   1.724       .  A
C2544      C2545   1.388       .  A
C2545      H2551   1.083       .  S
S2546      C2547   1.725       .  A
C2547      C2548   1.386       .  A
C2548      H2552   1.083       .  S
C2553      S2559   1.715       .  A
C2553      C2558   1.386       .  A
C2553      C2554   1.406       .  A
C2554      C2555   1.407       .  A
C2554      H2565   1.083       .  S
C2555      C2564   1.374       .  A
C2555      C2556   1.387       .  A
C2556      S2562   1.704       .  A
C2556      C2557   1.399       .  A
C2557      C2558   1.401       .  A
C2557      H2566   1.083       .  S
C2558      C2561   1.368       .  A
S2559      C2560   1.727       .  A
C2560      C2561   1.389       .  A
C2561      H2567   1.083       .  S
S2562      C2563   1.722       .  A
C2563      C2564   1.390       .  A
C2564      H2568   1.083       .  S
C2569      S2575   1.702       .  A
C2569      C2574   1.387       .  A
C2569      C2570   1.396       .  A
C2570      C2571   1.397       .  A
C2570      H2581   1.083       .  S
C2571      C2580   1.363       .  A
C2571      C2572   1.386       .  A
C2572      S2578   1.710       .  A
C2572      C2573   1.403       .  A
C2573      C2574   1.405       .  A
C2573      H2582   1.083       .  S
C2574      C2577   1.370       .  A
S2575      C2576   1.720       .  A
C2576      C2577   1.390       .  A
C2577      H2583   1.083       .  S
S2578      C2579   1.725       .  A
C2579      C2580   1.384       .  A
C2580      H2584   1.083       .  S
C2585      S2591   1.701       .  A
C2585      C2590   1.387       .  A
C2585      C2586   1.401       .  A
C2586      C2587   1.400       .  A
C2586      H2597   1.083       .  S
C2587      C2596   1.373       .  A
C2587      C2588   1.388       .  A
C2588      S2594   1.694       .  A
C2588      C2589   1.397       .  A
C2589      C2590   1.396       .  A
C2589      H2598   1.083       .  S
C2590      C2593   1.368       .  A
S2591      C2592   1.725       .  A
C2592      C2593   1.383       .  A
C2593      H2599   1.083       .  S
S2594      C2595   1.724       .  A
C2595      C2596   1.385       .  A
C2596      H2600   1.083       .  S
C2601      S2607   1.705       .  A
C2601      C2606   1.386       .  A
C2601      C2602   1.403   1_554  A
C2602      C2603   1.403       .  A
C2602      H2613   1.083       .  S
C2603      C2612   1.373       .  A
C2603      C2604   1.386       .  A
C2604      S2610   1.705       .  A
C2604      C2605   1.402       .  A
C2605      C2606   1.402   1_556  A
C2605      H2614   1.083   1_556  S
C2606      C2609   1.373       .  A
S2607      C2608   1.726       .  A
C2608      C2609   1.388       .  A
C2609      H2615   1.083       .  S
S2610      C2611   1.724       .  A
C2611      C2612   1.389       .  A
C2612      H2616   1.083       .  S
C2617      S2623   1.711       .  A
C2617      C2622   1.386       .  A
C2617      C2618   1.405       .  A
C2618      C2619   1.405       .  A
C2618      H2629   1.083       .  S
C2619      C2628   1.373       .  A
C2619      C2620   1.387       .  A
C2620      S2626   1.701       .  A
C2620      C2621   1.397       .  A
C2621      C2622   1.398       .  A
C2621      H2630   1.083       .  S
C2622      C2625   1.366       .  A
S2623      C2624   1.727       .  A
C2624      C2625   1.385       .  A
C2625      H2631   1.083       .  S
S2626      C2627   1.721       .  A
C2627      C2628   1.389       .  A
C2628      H2632   1.083   1_655  S
C2633      S2639   1.711       .  A
C2633      C2638   1.386       .  A
C2633      C2634   1.403       .  A
C2634      C2635   1.405       .  A
C2634      H2645   1.083       .  S
C2635      C2644   1.371       .  A
C2635      C2636   1.386       .  A
C2636      S2642   1.709       .  A
C2636      C2637   1.402       .  A
C2637      C2638   1.403       .  A
C2637      H2646   1.083       .  S
C2638      C2641   1.370       .  A
S2639      C2640   1.725       .  A
C2640      C2641   1.389       .  A
C2641      H2647   1.083       .  S
S2642      C2643   1.725       .  A
C2643      C2644   1.390       .  A
C2644      H2648   1.083       .  S
C2649      S2655   1.706       .  A
C2649      C2654   1.387       .  A
C2649      C2650   1.399       .  A
C2650      C2651   1.401       .  A
C2650      H2661   1.083       .  S
C2651      C2660   1.365       .  A
C2651      C2652   1.386       .  A
C2652      S2658   1.717       .  A
C2652      C2653   1.406       .  A
C2653      C2654   1.408       .  A
C2653      H2662   1.083       .  S
C2654      C2657   1.374       .  A
S2655      C2656   1.723       .  A
C2656      C2657   1.391       .  A
C2657      H2663   1.083   1_455  S
S2658      C2659   1.726       .  A
C2659      C2660   1.388       .  A
C2660      H2664   1.083       .  S
C2665      S2671   1.700       .  A
C2665      C2670   1.387       .  A
C2665      C2666   1.396       .  A
C2666      C2667   1.397       .  A
C2666      H2677   1.083       .  S
C2667      C2676   1.365       .  A
C2667      C2668   1.386       .  A
C2668      S2674   1.714       .  A
C2668      C2669   1.407       .  A
C2669      C2670   1.408       .  A
C2669      H2678   1.083       .  S
C2670      C2673   1.377       .  A
S2671      C2672   1.722       .  A
C2672      C2673   1.392       .  A
C2673      H2679   1.083       .  S
S2674      C2675   1.728       .  A
C2675      C2676   1.384       .  A
C2676      H2680   1.083       .  S
C2681      S2687   1.704       .  A
C2681      C2686   1.387       .  A
C2681      C2682   1.401       .  A
C2682      C2683   1.401       .  A
C2682      H2693   1.083       .  S
C2683      C2692   1.370       .  A
C2683      C2684   1.387       .  A
C2684      S2690   1.708       .  A
C2684      C2685   1.403       .  A
C2685      C2686   1.404       .  A
C2685      H2694   1.083   1_545  S
C2686      C2689   1.374       .  A
S2687      C2688   1.726       .  A
C2688      C2689   1.389       .  A
C2689      H2695   1.083   1_545  S
S2690      C2691   1.725       .  A
C2691      C2692   1.387       .  A
C2692      H2696   1.083       .  S
C2697      S2703   1.710       .  A
C2697      C2702   1.386       .  A
C2697      C2698   1.402       .  A
C2698      C2699   1.404       .  A
C2698      H2709   1.083       .  S
C2699      C2708   1.369       .  A
C2699      C2700   1.386       .  A
C2700      S2706   1.707       .  A
C2700      C2701   1.400       .  A
C2701      C2702   1.402       .  A
C2701      H2710   1.083       .  S
C2702      C2705   1.368       .  A
S2703      C2704   1.724       .  A
C2704      C2705   1.389       .  A
C2705      H2711   1.083       .  S
S2706      C2707   1.722       .  A
C2707      C2708   1.389       .  A
C2708      H2712   1.083       .  S
C2713      S2719   1.706       .  A
C2713      C2718   1.387       .  A
C2713      C2714   1.403       .  A
C2714      C2715   1.403       .  A
C2714      H2725   1.083       .  S
C2715      C2724   1.375       .  A
C2715      C2716   1.387       .  A
C2716      S2722   1.697       .  A
C2716      C2717   1.399       .  A
C2717      C2718   1.399       .  A
C2717      H2726   1.083       .  S
C2718      C2721   1.369       .  A
S2719      C2720   1.725       .  A
C2720      C2721   1.385       .  A
C2721      H2727   1.083       .  S
S2722      C2723   1.725       .  A
C2723      C2724   1.386       .  A
C2724      H2728   1.083       .  S
C2729      S2735   1.713   1_455  A
C2729      C2734   1.386       .  A
C2729      C2730   1.402       .  A
C2730      C2731   1.404       .  A
C2730      H2741   1.083       .  S
C2731      C2740   1.369       .  A
C2731      C2732   1.387       .  A
C2732      S2738   1.708       .  A
C2732      C2733   1.399       .  A
C2733      C2734   1.402       .  A
C2733      H2742   1.083       .  S
C2734      C2737   1.365       .  A
S2735      C2736   1.723       .  A
C2736      C2737   1.388   1_655  A
C2737      H2743   1.083   1_455  S
S2738      C2739   1.723       .  A
C2739      C2740   1.389       .  A
C2740      H2744   1.083       .  S
C2745      S2751   1.697       .  A
C2745      C2750   1.387       .  A
C2745      C2746   1.400       .  A
C2746      C2747   1.399       .  A
C2746      H2757   1.083       .  S
C2747      C2756   1.372       .  A
C2747      C2748   1.387       .  A
C2748      S2754   1.708       .  A
C2748      C2749   1.407       .  A
C2749      C2750   1.406       .  A
C2749      H2758   1.083       .  S
C2750      C2753   1.381       .  A
S2751      C2752   1.727       .  A
C2752      C2753   1.389       .  A
C2753      H2759   1.083       .  S
S2754      C2755   1.728       .  A
C2755      C2756   1.385       .  A
C2756      H2760   1.083       .  S
C2761      S2767   1.719       .  A
C2761      C2766   1.385       .  A
C2761      C2762   1.407       .  A
C2762      C2763   1.410       .  A
C2762      H2773   1.083       .  S
C2763      C2772   1.374       .  A
C2763      C2764   1.386       .  A
C2764      S2770   1.707       .  A
C2764      C2765   1.397       .  A
C2765      C2766   1.400       .  A
C2765      H2774   1.083       .  S
C2766      C2769   1.364       .  A
S2767      C2768   1.728       .  A
C2768      C2769   1.387       .  A
C2769      H2775   1.083       .  S
S2770      C2771   1.721       .  A
C2771      C2772   1.394       .  A
C2772      H2776   1.083       .  S
C2777      S2783   1.718   1_455  A
C2777      C2782   1.385       .  A
C2777      C2778   1.408       .  A
C2778      C2779   1.409       .  A
C2778      H2789   1.083       .  S
C2779      C2788   1.377       .  A
C2779      C2780   1.387       .  A
C2780      S2786   1.705       .  A
C2780      C2781   1.398       .  A
C2781      C2782   1.400       .  A
C2781      H2790   1.083       .  S
C2782      C2785   1.366       .  A
S2783      C2784   1.727       .  A
C2784      C2785   1.389   1_655  A
C2785      H2791   1.083       .  S
S2786      C2787   1.722       .  A
C2787      C2788   1.393       .  A
C2788      H2792   1.083       .  S
C2793      S2799   1.710       .  A
C2793      C2798   1.386       .  A
C2793      C2794   1.405       .  A
C2794      C2795   1.405       .  A
C2794      H2805   1.083       .  S
C2795      C2804   1.373       .  A
C2795      C2796   1.387       .  A
C2796      S2802   1.699       .  A
C2796      C2797   1.396       .  A
C2797      C2798   1.398       .  A
C2797      H2806   1.083       .  S
C2798      C2801   1.366       .  A
S2799      C2800   1.725       .  A
C2800      C2801   1.385       .  A
C2801      H2807   1.083       .  S
S2802      C2803   1.721       .  A
C2803      C2804   1.389       .  A
C2804      H2808   1.083       .  S
C2809      S2815   1.704       .  A
C2809      C2814   1.386       .  A
C2809      C2810   1.403       .  A
C2810      C2811   1.403       .  A
C2810      H2821   1.083       .  S
C2811      C2820   1.375       .  A
C2811      C2812   1.386       .  A
C2812      S2818   1.715       .  A
C2812      C2813   1.410       .  A
C2813      C2814   1.409       .  A
C2813      H2822   1.083       .  S
C2814      C2817   1.382       .  A
S2815      C2816   1.727       .  A
C2816      C2817   1.392       .  A
C2817      H2823   1.083       .  S
S2818      C2819   1.730       .  A
C2819      C2820   1.390       .  A
C2820      H2824   1.083       .  S
C2825      S2831   1.709       .  A
C2825      C2830   1.387       .  A
C2825      C2826   1.407       .  A
C2826      C2827   1.406       .  A
C2826      H2837   1.083       .  S
C2827      C2836   1.379       .  A
C2827      C2828   1.388       .  A
C2828      S2834   1.693       .  A
C2828      C2829   1.396       .  A
C2829      C2830   1.395       .  A
C2829      H2838   1.083       .  S
C2830      C2833   1.366       .  A
S2831      C2832   1.728       .  A
C2832      C2833   1.383       .  A
C2833      H2839   1.083       .  S
S2834      C2835   1.724   1_565  A
C2835      C2836   1.389   1_545  A
C2836      H2840   1.083   1_565  S
C2841      S2847   1.703       .  A
C2841      C2846   1.387       .  A
C2841      C2842   1.393       .  A
C2842      C2843   1.397       .  A
C2842      H2853   1.083       .  S
C2843      C2852   1.358       .  A
C2843      C2844   1.385       .  A
C2844      S2850   1.720       .  A
C2844      C2845   1.407       .  A
C2845      C2846   1.409       .  A
C2845      H2854   1.083       .  S
C2846      C2849   1.373       .  A
S2847      C2848   1.719       .  A
C2848      C2849   1.392       .  A
C2849      H2855   1.083       .  S
S2850      C2851   1.727       .  A
C2851      C2852   1.386       .  A
C2852      H2856   1.084       .  S
C2857      S2863   1.702       .  A
C2857      C2862   1.387       .  A
C2857      C2858   1.399       .  A
C2858      C2859   1.400       .  A
C2858      H2869   1.083       .  S
C2859      C2868   1.368       .  A
C2859      C2860   1.387       .  A
C2860      S2866   1.708       .  A
C2860      C2861   1.402       .  A
C2861      C2862   1.402       .  A
C2861      H2870   1.083       .  S
C2862      C2865   1.370       .  A
S2863      C2864   1.723       .  A
C2864      C2865   1.386       .  A
C2865      H2871   1.083       .  S
S2866      C2867   1.726       .  A
C2867      C2868   1.386       .  A
C2868      H2872   1.083       .  S
C2873      S2879   1.717       .  A
C2873      C2878   1.385       .  A
C2873      C2874   1.407       .  A
C2874      C2875   1.408       .  A
C2874      H2885   1.083       .  S
C2875      C2884   1.377       .  A
C2875      C2876   1.386       .  A
C2876      S2882   1.707       .  A
C2876      C2877   1.401       .  A
C2877      C2878   1.402       .  A
C2877      H2886   1.083       .  S
C2878      C2881   1.369       .  A
S2879      C2880   1.726       .  A
C2880      C2881   1.390       .  A
C2881      H2887   1.083       .  S
S2882      C2883   1.724       .  A
C2883      C2884   1.392       .  A
C2884      H2888   1.083       .  S
C2889      S2895   1.706       .  A
C2889      C2894   1.386       .  A
C2889      C2890   1.401       .  A
C2890      C2891   1.402       .  A
C2890      H2901   1.083       .  S
C2891      C2900   1.372       .  A
C2891      C2892   1.386       .  A
C2892      S2898   1.710       .  A
C2892      C2893   1.404       .  A
C2893      C2894   1.405       .  A
C2893      H2902   1.083       .  S
C2894      C2897   1.374       .  A
S2895      C2896   1.725       .  A
C2896      C2897   1.390       .  A
C2897      H2903   1.083       .  S
S2898      C2899   1.727       .  A
C2899      C2900   1.389       .  A
C2900      H2904   1.083       .  S
C2905      S2911   1.707       .  A
C2905      C2910   1.386       .  A
C2905      C2906   1.403       .  A
C2906      C2907   1.403   1_565  A
C2906      H2917   1.083       .  S
C2907      C2916   1.375       .  A
C2907      C2908   1.386   1_545  A
C2908      S2914   1.713   1_565  A
C2908      C2909   1.409       .  A
C2909      C2910   1.409       .  A
C2909      H2918   1.083       .  S
C2910      C2913   1.381       .  A
S2911      C2912   1.727       .  A
C2912      C2913   1.393       .  A
C2913      H2919   1.083       .  S
S2914      C2915   1.728       .  A
C2915      C2916   1.389       .  A
C2916      H2920   1.083       .  S
C2921      S2927   1.707       .  A
C2921      C2926   1.386       .  A
C2921      C2922   1.400       .  A
C2922      C2923   1.402       .  A
C2922      H2933   1.083       .  S
C2923      C2932   1.367       .  A
C2923      C2924   1.386       .  A
C2924      S2930   1.709       .  A
C2924      C2925   1.402       .  A
C2925      C2926   1.404       .  A
C2925      H2934   1.083       .  S
C2926      C2929   1.369       .  A
S2927      C2928   1.723       .  A
C2928      C2929   1.390       .  A
C2929      H2935   1.083       .  S
S2930      C2931   1.724       .  A
C2931      C2932   1.389       .  A
C2932      H2936   1.083       .  S
C2937      S2943   1.703       .  A
C2937      C2942   1.387       .  A
C2937      C2938   1.404       .  A
C2938      C2939   1.403       .  A
C2938      H2949   1.083       .  S
C2939      C2948   1.377       .  A
C2939      C2940   1.387       .  A
C2940      S2946   1.697       .  A
C2940      C2941   1.400       .  A
C2941      C2942   1.399       .  A
C2941      H2950   1.083       .  S
C2942      C2945   1.373       .  A
S2943      C2944   1.727       .  A
C2944      C2945   1.385       .  A
C2945      H2951   1.083       .  S
S2946      C2947   1.726   1_655  A
C2947      C2948   1.387   1_455  A
C2948      H2952   1.083   1_655  S
C2953      S2959   1.696       .  A
C2953      C2958   1.388       .  A
C2953      C2954   1.397       .  A
C2954      C2955   1.397       .  A
C2954      H2965   1.083       .  S
C2955      C2964   1.369       .  A
C2955      C2956   1.387       .  A
C2956      S2962   1.703       .  A
C2956      C2957   1.402       .  A
C2957      C2958   1.401       .  A
C2957      H2966   1.083       .  S
C2958      C2961   1.373       .  A
S2959      C2960   1.724       .  A
C2960      C2961   1.386       .  A
C2961      H2967   1.083       .  S
S2962      C2963   1.726       .  A
C2963      C2964   1.384       .  A
C2964      H2968   1.083       .  S
C2969      S2975   1.700       .  A
C2969      C2974   1.387       .  A
C2969      C2970   1.404       .  A
C2970      C2971   1.402       .  A
C2970      H2981   1.083       .  S
C2971      C2980   1.378       .  A
C2971      C2972   1.388       .  A
C2972      S2978   1.694       .  A
C2972      C2973   1.401       .  A
C2973      C2974   1.398       .  A
C2973      H2982   1.083       .  S
C2974      C2977   1.375       .  A
S2975      C2976   1.728       .  A
C2976      C2977   1.385       .  A
C2977      H2983   1.083       .  S
S2978      C2979   1.727       .  A
C2979      C2980   1.387       .  A
C2980      H2984   1.083       .  S
C2985      S2991   1.705       .  A
C2985      C2990   1.387       .  A
C2985      C2986   1.406       .  A
C2986      C2987   1.404       .  A
C2986      H2997   1.083       .  S
C2987      C2996   1.379       .  A
C2987      C2988   1.387       .  A
C2988      S2994   1.695       .  A
C2988      C2989   1.399       .  A
C2989      C2990   1.398       .  A
C2989      H2998   1.083       .  S
C2990      C2993   1.372       .  A
S2991      C2992   1.726       .  A
C2992      C2993   1.385       .  A
C2993      H2999   1.083       .  S
S2994      C2995   1.725       .  A
C2995      C2996   1.389       .  A
C2996      H3000   1.083       .  S
C3001      S3007   1.708       .  A
C3001      C3006   1.386       .  A
C3001      C3002   1.406       .  A
C3002      C3003   1.404       .  A
C3002      H3013   1.083       .  S
C3003      C3012   1.376       .  A
C3003      C3004   1.386       .  A
C3004      S3010   1.706       .  A
C3004      C3005   1.404       .  A
C3005      C3006   1.404       .  A
C3005      H3014   1.083       .  S
C3006      C3009   1.377       .  A
S3007      C3008   1.729       .  A
C3008      C3009   1.390       .  A
C3009      H3015   1.083       .  S
S3010      C3011   1.726       .  A
C3011      C3012   1.389       .  A
C3012      H3016   1.083       .  S
C3017      S3023   1.712       .  A
C3017      C3022   1.386       .  A
C3017      C3018   1.405   1_455  A
C3018      C3019   1.406       .  A
C3018      H3029   1.083       .  S
C3019      C3028   1.374       .  A
C3019      C3020   1.387       .  A
C3020      S3026   1.702       .  A
C3020      C3021   1.398   1_655  A
C3021      C3022   1.399       .  A
C3021      H3030   1.083       .  S
C3022      C3025   1.367       .  A
S3023      C3024   1.727       .  A
C3024      C3025   1.386       .  A
C3025      H3031   1.083       .  S
S3026      C3027   1.723       .  A
C3027      C3028   1.389       .  A
C3028      H3032   1.083       .  S
C3033      S3039   1.706       .  A
C3033      C3038   1.386       .  A
C3033      C3034   1.399       .  A
C3034      C3035   1.401       .  A
C3034      H3045   1.083       .  S
C3035      C3044   1.367       .  A
C3035      C3036   1.386       .  A
C3036      S3042   1.716   1_545  A
C3036      C3037   1.407       .  A
C3037      C3038   1.408       .  A
C3037      H3046   1.083       .  S
C3038      C3041   1.375       .  A
S3039      C3040   1.722       .  A
C3040      C3041   1.392       .  A
C3041      H3047   1.083   1_655  S
S3042      C3043   1.727       .  A
C3043      C3044   1.388   1_565  A
C3044      H3048   1.083       .  S
C3049      S3055   1.707       .  A
C3049      C3054   1.387       .  A
C3049      C3050   1.401       .  A
C3050      C3051   1.402       .  A
C3050      H3061   1.083       .  S
C3051      C3060   1.370       .  A
C3051      C3052   1.387       .  A
C3052      S3058   1.702       .  A
C3052      C3053   1.398       .  A
C3053      C3054   1.399       .  A
C3053      H3062   1.083       .  S
C3054      C3057   1.365       .  A
S3055      C3056   1.724       .  A
C3056      C3057   1.384       .  A
C3057      H3063   1.083       .  S
S3058      C3059   1.723       .  A
C3059      C3060   1.386       .  A
C3060      H3064   1.083       .  S
C3065      S3071   1.708   1_545  A
C3065      C3070   1.387       .  A
C3065      C3066   1.409       .  A
C3066      C3067   1.406       .  A
C3066      H3077   1.083       .  S
C3067      C3076   1.382       .  A
C3067      C3068   1.387       .  A
C3068      S3074   1.696       .  A
C3068      C3069   1.401       .  A
C3069      C3070   1.399       .  A
C3069      H3078   1.083       .  S
C3070      C3073   1.376       .  A
S3071      C3072   1.729       .  A
C3072      C3073   1.387   1_565  A
C3073      H3079   1.083       .  S
S3074      C3075   1.726       .  A
C3075      C3076   1.391       .  A
C3076      H3080   1.083       .  S
C3081      S3087   1.703       .  A
C3081      C3086   1.387       .  A
C3081      C3082   1.403       .  A
C3082      C3083   1.402       .  A
C3082      H3093   1.083       .  S
C3083      C3092   1.375       .  A
C3083      C3084   1.388       .  A
C3084      S3090   1.691       .  A
C3084      C3085   1.395       .  A
C3085      C3086   1.394       .  A
C3085      H3094   1.083       .  S
C3086      C3089   1.365       .  A
S3087      C3088   1.726       .  A
C3088      C3089   1.382       .  A
C3089      H3095   1.083       .  S
S3090      C3091   1.723       .  A
C3091      C3092   1.387       .  A
C3092      H3096   1.083       .  S
C3097      S3103   1.699       .  A
C3097      C3102   1.387       .  A
C3097      C3098   1.396       .  A
C3098      C3099   1.398       .  A
C3098      H3109   1.083       .  S
C3099      C3108   1.364       .  A
C3099      C3100   1.387       .  A
C3100      S3106   1.708   1_655  A
C3100      C3101   1.402       .  A
C3101      C3102   1.403       .  A
C3101      H3110   1.083       .  S
C3102      C3105   1.370       .  A
S3103      C3104   1.722   1_545  A
C3104      C3105   1.387   1_565  A
C3105      H3111   1.083   1_545  S
S3106      C3107   1.725       .  A
C3107      C3108   1.384   1_455  A
C3108      H3112   1.083       .  S
C3113      S3119   1.699       .  A
C3113      C3118   1.387       .  A
C3113      C3114   1.396       .  A
C3114      C3115   1.397       .  A
C3114      H3125   1.083       .  S
C3115      C3124   1.363       .  A
C3115      C3116   1.386       .  A
C3116      S3122   1.710       .  A
C3116      C3117   1.403       .  A
C3117      C3118   1.405       .  A
C3117      H3126   1.083       .  S
C3118      C3121   1.372       .  A
S3119      C3120   1.722       .  A
C3120      C3121   1.388       .  A
C3121      H3127   1.083       .  S
S3122      C3123   1.725       .  A
C3123      C3124   1.384       .  A
C3124      H3128   1.083       .  S
C3129      S3135   1.714   1_545  A
C3129      C3134   1.386       .  A
C3129      C3130   1.402       .  A
C3130      C3131   1.404       .  A
C3130      H3141   1.083       .  S
C3131      C3140   1.366       .  A
C3131      C3132   1.387       .  A
C3132      S3138   1.702       .  A
C3132      C3133   1.394       .  A
C3133      C3134   1.397       .  A
C3133      H3142   1.083       .  S
C3134      C3137   1.359   1_545  A
S3135      C3136   1.724       .  A
C3136      C3137   1.386       .  A
C3137      H3143   1.084       .  S
S3138      C3139   1.719       .  A
C3139      C3140   1.388       .  A
C3140      H3144   1.083       .  S
C3145      S3151   1.712       .  A
C3145      C3150   1.386       .  A
C3145      C3146   1.409       .  A
C3146      C3147   1.408       .  A
C3146      H3157   1.083       .  S
C3147      C3156   1.381       .  A
C3147      C3148   1.387       .  A
C3148      S3154   1.696       .  A
C3148      C3149   1.398       .  A
C3149      C3150   1.397       .  A
C3149      H3158   1.083       .  S
C3150      C3153   1.370       .  A
S3151      C3152   1.730       .  A
C3152      C3153   1.385       .  A
C3153      H3159   1.083       .  S
S3154      C3155   1.725       .  A
C3155      C3156   1.391       .  A
C3156      H3160   1.083       .  S
C3161      S3167   1.709       .  A
C3161      C3166   1.386       .  A
C3161      C3162   1.407       .  A
C3162      C3163   1.406       .  A
C3162      H3173   1.083       .  S
C3163      C3172   1.379       .  A
C3163      C3164   1.386       .  A
C3164      S3170   1.707       .  A
C3164      C3165   1.406       .  A
C3165      C3166   1.405       .  A
C3165      H3174   1.083       .  S
C3166      C3169   1.378       .  A
S3167      C3168   1.729       .  A
C3168      C3169   1.390       .  A
C3169      H3175   1.083       .  S
S3170      C3171   1.727       .  A
C3171      C3172   1.390       .  A
C3172      H3176   1.083       .  S
C3177      S3183   1.709       .  A
C3177      C3182   1.386       .  A
C3177      C3178   1.406       .  A
C3178      C3179   1.405       .  A
C3178      H3189   1.083       .  S
C3179      C3188   1.378       .  A
C3179      C3180   1.387       .  A
C3180      S3186   1.704       .  A
C3180      C3181   1.403       .  A
C3181      C3182   1.402       .  A
C3181      H3190   1.083       .  S
C3182      C3185   1.374       .  A
S3183      C3184   1.727       .  A
C3184      C3185   1.388       .  A
C3185      H3191   1.083       .  S
S3186      C3187   1.726       .  A
C3187      C3188   1.390       .  A
C3188      H3192   1.083       .  S
C3193      S3199   1.706       .  A
C3193      C3198   1.386       .  A
C3193      C3194   1.402       .  A
C3194      C3195   1.402       .  A
C3194      H3205   1.083       .  S
C3195      C3204   1.373       .  A
C3195      C3196   1.386       .  A
C3196      S3202   1.714       .  A
C3196      C3197   1.408       .  A
C3197      C3198   1.408       .  A
C3197      H3206   1.083       .  S
C3198      C3201   1.379       .  A
S3199      C3200   1.726       .  A
C3200      C3201   1.391       .  A
C3201      H3207   1.083       .  S
S3202      C3203   1.729       .  A
C3203      C3204   1.389       .  A
C3204      H3208   1.083       .  S
C3209      S3215   1.702       .  A
C3209      C3214   1.387   1_655  A
C3209      C3210   1.402       .  A
C3210      C3211   1.402       .  A
C3210      H3221   1.083       .  S
C3211      C3220   1.374       .  A
C3211      C3212   1.386   1_655  A
C3212      S3218   1.709       .  A
C3212      C3213   1.406       .  A
C3213      C3214   1.405       .  A
C3213      H3222   1.083       .  S
C3214      C3217   1.378       .  A
S3215      C3216   1.726   1_655  A
C3216      C3217   1.389       .  A
C3217      H3223   1.083       .  S
S3218      C3219   1.729   1_455  A
C3219      C3220   1.389       .  A
C3220      H3224   1.083       .  S
C3225      S3231   1.699       .  A
C3225      C3230   1.387       .  A
C3225      C3226   1.395       .  A
C3226      C3227   1.396       .  A
C3226      H3237   1.083       .  S
C3227      C3236   1.363       .  A
C3227      C3228   1.386       .  A
C3228      S3234   1.714       .  A
C3228      C3229   1.406       .  A
C3229      C3230   1.407       .  A
C3229      H3238   1.083       .  S
C3230      C3233   1.375       .  A
S3231      C3232   1.722       .  A
C3232      C3233   1.390       .  A
C3233      H3239   1.083       .  S
S3234      C3235   1.727       .  A
C3235      C3236   1.384       .  A
C3236      H3240   1.083       .  S
C3241      S3247   1.717       .  A
C3241      C3246   1.386       .  A
C3241      C3242   1.409       .  A
C3242      C3243   1.409       .  A
C3242      H3253   1.083       .  S
C3243      C3252   1.377       .  A
C3243      C3244   1.387       .  A
C3244      S3250   1.702       .  A
C3244      C3245   1.397       .  A
C3245      C3246   1.399       .  A
C3245      H3254   1.083       .  S
C3246      C3249   1.367       .  A
S3247      C3248   1.729       .  A
C3248      C3249   1.387       .  A
C3249      H3255   1.083       .  S
S3250      C3251   1.721       .  A
C3251      C3252   1.392       .  A
C3252      H3256   1.083       .  S
C3257      S3263   1.712       .  A
C3257      C3262   1.386       .  A
C3257      C3258   1.406       .  A
C3258      C3259   1.407       .  A
C3258      H3269   1.083       .  S
C3259      C3268   1.376       .  A
C3259      C3260   1.387       .  A
C3260      S3266   1.703       .  A
C3260      C3261   1.398       .  A
C3261      C3262   1.399       .  A
C3261      H3270   1.083       .  S
C3262      C3265   1.367       .  A
S3263      C3264   1.727       .  A
C3264      C3265   1.386       .  A
C3265      H3271   1.083       .  S
S3266      C3267   1.724       .  A
C3267      C3268   1.391       .  A
C3268      H3272   1.083       .  S
C3273      S3279   1.710       .  A
C3273      C3278   1.386   1_565  A
C3273      C3274   1.399       .  A
C3274      C3275   1.401       .  A
C3274      H3285   1.083       .  S
C3275      C3284   1.364       .  A
C3275      C3276   1.386   1_565  A
C3276      S3282   1.709       .  A
C3276      C3277   1.400       .  A
C3277      C3278   1.403       .  A
C3277      H3286   1.083       .  S
C3278      C3281   1.366       .  A
S3279      C3280   1.723       .  A
C3280      C3281   1.389   1_565  A
C3281      H3287   1.083       .  S
S3282      C3283   1.724       .  A
C3283      C3284   1.387   1_545  A
C3284      H3288   1.083       .  S
C3289      S3295   1.703       .  A
C3289      C3294   1.387       .  A
C3289      C3290   1.394       .  A
C3290      C3291   1.398       .  A
C3290      H3301   1.083       .  S
C3291      C3300   1.360       .  A
C3291      C3292   1.386       .  A
C3292      S3298   1.715       .  A
C3292      C3293   1.403       .  A
C3293      C3294   1.406       .  A
C3293      H3302   1.083       .  S
C3294      C3297   1.369       .  A
S3295      C3296   1.719       .  A
C3296      C3297   1.389       .  A
C3297      H3303   1.083       .  S
S3298      C3299   1.725       .  A
C3299      C3300   1.386       .  A
C3300      H3304   1.083       .  S
C3305      S3311   1.696       .  A
C3305      C3310   1.388       .  A
C3305      C3306   1.399       .  A
C3306      C3307   1.399       .  A
C3306      H3317   1.083       .  S
C3307      C3316   1.370       .  A
C3307      C3308   1.387       .  A
C3308      S3314   1.705       .  A
C3308      C3309   1.403       .  A
C3309      C3310   1.401       .  A
C3309      H3318   1.083       .  S
C3310      C3313   1.374       .  A
S3311      C3312   1.726       .  A
C3312      C3313   1.385       .  A
C3313      H3319   1.083       .  S
S3314      C3315   1.725       .  A
C3315      C3316   1.386       .  A
C3316      H3320   1.083       .  S
C3321      S3327   1.710       .  A
C3321      C3326   1.386       .  A
C3321      C3322   1.402       .  A
C3322      C3323   1.404       .  A
C3322      H3333   1.083       .  S
C3323      C3332   1.369       .  A
C3323      C3324   1.386       .  A
C3324      S3330   1.715       .  A
C3324      C3325   1.404       .  A
C3325      C3326   1.406       .  A
C3325      H3334   1.083       .  S
C3326      C3329   1.372       .  A
S3327      C3328   1.725       .  A
C3328      C3329   1.390       .  A
C3329      H3335   1.083       .  S
S3330      C3331   1.724       .  A
C3331      C3332   1.392       .  A
C3332      H3336   1.083       .  S
C3337      S3343   1.706       .  A
C3337      C3342   1.387       .  A
C3337      C3338   1.402       .  A
C3338      C3339   1.402       .  A
C3338      H3349   1.083       .  S
C3339      C3348   1.371       .  A
C3339      C3340   1.387       .  A
C3340      S3346   1.702       .  A
C3340      C3341   1.400       .  A
C3341      C3342   1.401       .  A
C3341      H3350   1.083       .  S
C3342      C3345   1.370       .  A
S3343      C3344   1.725       .  A
C3344      C3345   1.387       .  A
C3345      H3351   1.083       .  S
S3346      C3347   1.724       .  A
C3347      C3348   1.386       .  A
C3348      H3352   1.083       .  S
C3353      S3359   1.702       .  A
C3353      C3358   1.387       .  A
C3353      C3354   1.405       .  A
C3354      C3355   1.403       .  A
C3354      H3365   1.083       .  S
C3355      C3364   1.378       .  A
C3355      C3356   1.388       .  A
C3356      S3362   1.693       .  A
C3356      C3357   1.398       .  A
C3357      C3358   1.396       .  A
C3357      H3366   1.083       .  S
C3358      C3361   1.371       .  A
S3359      C3360   1.728       .  A
C3360      C3361   1.383       .  A
C3361      H3367   1.083       .  S
S3362      C3363   1.725       .  A
C3363      C3364   1.388       .  A
C3364      H3368   1.083       .  S
C3369      S3375   1.709       .  A
C3369      C3374   1.386       .  A
C3369      C3370   1.401       .  A
C3370      C3371   1.403       .  A
C3370      H3381   1.083       .  S
C3371      C3380   1.367       .  A
C3371      C3372   1.387       .  A
C3372      S3378   1.704       .  A
C3372      C3373   1.396       .  A
C3373      C3374   1.399       .  A
C3373      H3382   1.083       .  S
C3374      C3377   1.363       .  A
S3375      C3376   1.723       .  A
C3376      C3377   1.386       .  A
C3377      H3383   1.083       .  S
S3378      C3379   1.721       .  A
C3379      C3380   1.388       .  A
C3380      H3384   1.083       .  S
C3385      S3391   1.711       .  A
C3385      C3390   1.386       .  A
C3385      C3386   1.406       .  A
C3386      C3387   1.406       .  A
C3386      H3397   1.083       .  S
C3387      C3396   1.375       .  A
C3387      C3388   1.386       .  A
C3388      S3394   1.709       .  A
C3388      C3389   1.404       .  A
C3389      C3390   1.405       .  A
C3389      H3398   1.083       .  S
C3390      C3393   1.376       .  A
S3391      C3392   1.727       .  A
C3392      C3393   1.391       .  A
C3393      H3399   1.083       .  S
S3394      C3395   1.724       .  A
C3395      C3396   1.391       .  A
C3396      H3400   1.083       .  S
C3401      S3407   1.707       .  A
C3401      C3406   1.387       .  A
C3401      C3402   1.399       .  A
C3402      C3403   1.401       .  A
C3402      H3413   1.083       .  S
C3403      C3412   1.366       .  A
C3403      C3404   1.386       .  A
C3404      S3410   1.715       .  A
C3404      C3405   1.405       .  A
C3405      C3406   1.407       .  A
C3405      H3414   1.083       .  S
C3406      C3409   1.373       .  A
S3407      C3408   1.723       .  A
C3408      C3409   1.390       .  A
C3409      H3415   1.083       .  S
S3410      C3411   1.725       .  A
C3411      C3412   1.389       .  A
C3412      H3416   1.083       .  S
C3417      S3423   1.710       .  A
C3417      C3422   1.386       .  A
C3417      C3418   1.402       .  A
C3418      C3419   1.404       .  A
C3418      H3429   1.083       .  S
C3419      C3428   1.369       .  A
C3419      C3420   1.387       .  A
C3420      S3426   1.702       .  A
C3420      C3421   1.396       .  A
C3421      C3422   1.398       .  A
C3421      H3430   1.083       .  S
C3422      C3425   1.363       .  A
S3423      C3424   1.724       .  A
C3424      C3425   1.386       .  A
C3425      H3431   1.083       .  S
S3426      C3427   1.721       .  A
C3427      C3428   1.387       .  A
C3428      H3432   1.083       .  S
C3433      S3439   1.692       .  A
C3433      C3438   1.388       .  A
C3433      C3434   1.398       .  A
C3434      C3435   1.396       .  A
C3434      H3445   1.083       .  S
C3435      C3444   1.372       .  A
C3435      C3436   1.387       .  A
C3436      S3442   1.704       .  A
C3436      C3437   1.406       .  A
C3437      C3438   1.404       .  A
C3437      H3446   1.083       .  S
C3438      C3441   1.379       .  A
S3439      C3440   1.726       .  A
C3440      C3441   1.387       .  A
C3441      H3447   1.083       .  S
S3442      C3443   1.729       .  A
C3443      C3444   1.383       .  A
C3444      H3448   1.083       .  S
C3449      S3455   1.707       .  A
C3449      C3454   1.387       .  A
C3449      C3450   1.406       .  A
C3450      C3451   1.405       .  A
C3450      H3461   1.083       .  S
C3451      C3460   1.378       .  A
C3451      C3452   1.387       .  A
C3452      S3458   1.695       .  A
C3452      C3453   1.397       .  A
C3453      C3454   1.396       .  A
C3453      H3462   1.083       .  S
C3454      C3457   1.368       .  A
S3455      C3456   1.727       .  A
C3456      C3457   1.383       .  A
C3457      H3463   1.083       .  S
S3458      C3459   1.724       .  A
C3459      C3460   1.389       .  A
C3460      H3464   1.083       .  S
C3465      S3471   1.715       .  A
C3465      C3470   1.386       .  A
C3465      C3466   1.406       .  A
C3466      C3467   1.407       .  A
C3466      H3477   1.083       .  S
C3467      C3476   1.373       .  A
C3467      C3468   1.386       .  A
C3468      S3474   1.711       .  A
C3468      C3469   1.402       .  A
C3469      C3470   1.404       .  A
C3469      H3478   1.083       .  S
C3470      C3473   1.371       .  A
S3471      C3472   1.726       .  A
C3472      C3473   1.391       .  A
C3473      H3479   1.083       .  S
S3474      C3475   1.724       .  A
C3475      C3476   1.392       .  A
C3476      H3480   1.083       .  S
C3481      S3487   1.703       .  A
C3481      C3486   1.387       .  A
C3481      C3482   1.399       .  A
C3482      C3483   1.399       .  A
C3482      H3493   1.083       .  S
C3483      C3492   1.367       .  A
C3483      C3484   1.386       .  A
C3484      S3490   1.709       .  A
C3484      C3485   1.404       .  A
C3485      C3486   1.405       .  A
C3485      H3494   1.083   1_455  S
C3486      C3489   1.373       .  A
S3487      C3488   1.723       .  A
C3488      C3489   1.389       .  A
C3489      H3495   1.083   1_455  S
S3490      C3491   1.725       .  A
C3491      C3492   1.386       .  A
C3492      H3496   1.083       .  S
C3497      S3503   1.704       .  A
C3497      C3502   1.387       .  A
C3497      C3498   1.398       .  A
C3498      C3499   1.400       .  A
C3498      H3509   1.083       .  S
C3499      C3508   1.366       .  A
C3499      C3500   1.387       .  A
C3500      S3506   1.704       .  A
C3500      C3501   1.399       .  A
C3501      C3502   1.400       .  A
C3501      H3510   1.083       .  S
C3502      C3505   1.366       .  A
S3503      C3504   1.723       .  A
C3504      C3505   1.386       .  A
C3505      H3511   1.083       .  S
S3506      C3507   1.724       .  A
C3507      C3508   1.386       .  A
C3508      H3512   1.083       .  S
C3513      S3519   1.707       .  A
C3513      C3518   1.387       .  A
C3513      C3514   1.406       .  A
C3514      C3515   1.405       .  A
C3514      H3525   1.083       .  S
C3515      C3524   1.379       .  A
C3515      C3516   1.387       .  A
C3516      S3522   1.695       .  A
C3516      C3517   1.397       .  A
C3517      C3518   1.396       .  A
C3517      H3526   1.083       .  S
C3518      C3521   1.367       .  A
S3519      C3520   1.728       .  A
C3520      C3521   1.382       .  A
C3521      H3527   1.083       .  S
S3522      C3523   1.725       .  A
C3523      C3524   1.389       .  A
C3524      H3528   1.083       .  S
C3529      S3535   1.696       .  A
C3529      C3534   1.388       .  A
C3529      C3530   1.396       .  A
C3530      C3531   1.396       .  A
C3530      H3541   1.083       .  S
C3531      C3540   1.364       .  A
C3531      C3532   1.387       .  A
C3532      S3538   1.706       .  A
C3532      C3533   1.403       .  A
C3533      C3534   1.402       .  A
C3533      H3542   1.083       .  S
C3534      C3537   1.372       .  A
S3535      C3536   1.723   1_655  A
C3536      C3537   1.386   1_455  A
C3537      H3543   1.083   1_655  S
S3538      C3539   1.726       .  A
C3539      C3540   1.383       .  A
C3540      H3544   1.083       .  S
C3545      S3551   1.704       .  A
C3545      C3550   1.387       .  A
C3545      C3546   1.403       .  A
C3546      C3547   1.402       .  A
C3546      H3557   1.083       .  S
C3547      C3556   1.375       .  A
C3547      C3548   1.386       .  A
C3548      S3554   1.712       .  A
C3548      C3549   1.408       .  A
C3549      C3550   1.408       .  A
C3549      H3558   1.083       .  S
C3550      C3553   1.381       .  A
S3551      C3552   1.726       .  A
C3552      C3553   1.392       .  A
C3553      H3559   1.083       .  S
S3554      C3555   1.728       .  A
C3555      C3556   1.389       .  A
C3556      H3560   1.083       .  S
C3561      S3567   1.711       .  A
C3561      C3566   1.386       .  A
C3561      C3562   1.401       .  A
C3562      C3563   1.404       .  A
C3562      H3573   1.083       .  S
C3563      C3572   1.368       .  A
C3563      C3564   1.387       .  A
C3564      S3570   1.704       .  A
C3564      C3565   1.397       .  A
C3565      C3566   1.399       .  A
C3565      H3574   1.083       .  S
C3566      C3569   1.363       .  A
S3567      C3568   1.723       .  A
C3568      C3569   1.386       .  A
C3569      H3575   1.083       .  S
S3570      C3571   1.722       .  A
C3571      C3572   1.388       .  A
C3572      H3576   1.083       .  S
C3577      S3583   1.696       .  A
C3577      C3582   1.387       .  A
C3577      C3578   1.398       .  A
C3578      C3579   1.397       .  A
C3578      H3589   1.083       .  S
C3579      C3588   1.370       .  A
C3579      C3580   1.387       .  A
C3580      S3586   1.707       .  A
C3580      C3581   1.406       .  A
C3581      C3582   1.405       .  A
C3581      H3590   1.083       .  S
C3582      C3585   1.378       .  A
S3583      C3584   1.724       .  A
C3584      C3585   1.389       .  A
C3585      H3591   1.083       .  S
S3586      C3587   1.728       .  A
C3587      C3588   1.384       .  A
C3588      H3592   1.083       .  S
C3593      S3599   1.716       .  A
C3593      C3598   1.385       .  A
C3593      C3594   1.405       .  A
C3594      C3595   1.407       .  A
C3594      H3605   1.083       .  S
C3595      C3604   1.373       .  A
C3595      C3596   1.385       .  A
C3596      S3602   1.714       .  A
C3596      C3597   1.403       .  A
C3597      C3598   1.405       .  A
C3597      H3606   1.083       .  S
C3598      C3601   1.370       .  A
S3599      C3600   1.726       .  A
C3600      C3601   1.391       .  A
C3601      H3607   1.083       .  S
S3602      C3603   1.726       .  A
C3603      C3604   1.393       .  A
C3604      H3608   1.083       .  S
C3609      S3615   1.702   1_545  A
C3609      C3614   1.387       .  A
C3609      C3610   1.400       .  A
C3610      C3611   1.401       .  A
C3610      H3621   1.083       .  S
C3611      C3620   1.371       .  A
C3611      C3612   1.388       .  A
C3612      S3618   1.698       .  A
C3612      C3613   1.398       .  A
C3613      C3614   1.397       .  A
C3613      H3622   1.083       .  S
C3614      C3617   1.366       .  A
S3615      C3616   1.724       .  A
C3616      C3617   1.383   1_565  A
C3617      H3623   1.083       .  S
S3618      C3619   1.724       .  A
C3619      C3620   1.386       .  A
C3620      H3624   1.083       .  S
C3625      S3631   1.710       .  A
C3625      C3630   1.386       .  A
C3625      C3626   1.401       .  A
C3626      C3627   1.403       .  A
C3626      H3637   1.083       .  S
C3627      C3636   1.369       .  A
C3627      C3628   1.387       .  A
C3628      S3634   1.705       .  A
C3628      C3629   1.399       .  A
C3629      C3630   1.400       .  A
C3629      H3638   1.083       .  S
C3630      C3633   1.363       .  A
S3631      C3632   1.723       .  A
C3632      C3633   1.387       .  A
C3633      H3639   1.083       .  S
S3634      C3635   1.723       .  A
C3635      C3636   1.388       .  A
C3636      H3640   1.083       .  S
C3641      S3647   1.711       .  A
C3641      C3646   1.386       .  A
C3641      C3642   1.403       .  A
C3642      C3643   1.404       .  A
C3642      H3653   1.083       .  S
C3643      C3652   1.371       .  A
C3643      C3644   1.387       .  A
C3644      S3650   1.706       .  A
C3644      C3645   1.400       .  A
C3645      C3646   1.401       .  A
C3645      H3654   1.083       .  S
C3646      C3649   1.367       .  A
S3647      C3648   1.724       .  A
C3648      C3649   1.388       .  A
C3649      H3655   1.083       .  S
S3650      C3651   1.723       .  A
C3651      C3652   1.389       .  A
C3652      H3656   1.083       .  S
C3657      S3663   1.704   1_545  A
C3657      C3662   1.387       .  A
C3657      C3658   1.399       .  A
C3658      C3659   1.400       .  A
C3658      H3669   1.083       .  S
C3659      C3668   1.367       .  A
C3659      C3660   1.387       .  A
C3660      S3666   1.700       .  A
C3660      C3661   1.397       .  A
C3661      C3662   1.398       .  A
C3661      H3670   1.083       .  S
C3662      C3665   1.364   1_545  A
S3663      C3664   1.722       .  A
C3664      C3665   1.384       .  A
C3665      H3671   1.083       .  S
S3666      C3667   1.721       .  A
C3667      C3668   1.386       .  A
C3668      H3672   1.083       .  S
C3673      S3679   1.708       .  A
C3673      C3678   1.387       .  A
C3673      C3674   1.406       .  A
C3674      C3675   1.405       .  A
C3674      H3685   1.083       .  S
C3675      C3684   1.376       .  A
C3675      C3676   1.387       .  A
C3676      S3682   1.701       .  A
C3676      C3677   1.400       .  A
C3677      C3678   1.400       .  A
C3677      H3686   1.083       .  S
C3678      C3681   1.371       .  A
S3679      C3680   1.727       .  A
C3680      C3681   1.386       .  A
C3681      H3687   1.083       .  S
S3682      C3683   1.724       .  A
C3683      C3684   1.390       .  A
C3684      H3688   1.083       .  S
C3689      S3695   1.705       .  A
C3689      C3694   1.386       .  A
C3689      C3690   1.403       .  A
C3690      C3691   1.402       .  A
C3690      H3701   1.083       .  S
C3691      C3700   1.375       .  A
C3691      C3692   1.386       .  A
C3692      S3698   1.705       .  A
C3692      C3693   1.404       .  A
C3693      C3694   1.403       .  A
C3693      H3702   1.083       .  S
C3694      C3697   1.374       .  A
S3695      C3696   1.726       .  A
C3696      C3697   1.388       .  A
C3697      H3703   1.083       .  S
S3698      C3699   1.729       .  A
C3699      C3700   1.387       .  A
C3700      H3704   1.083       .  S
C3705      S3711   1.708   1_545  A
C3705      C3710   1.387       .  A
C3705      C3706   1.407       .  A
C3706      C3707   1.405       .  A
C3706      H3717   1.083       .  S
C3707      C3716   1.379       .  A
C3707      C3708   1.387       .  A
C3708      S3714   1.697       .  A
C3708      C3709   1.399       .  A
C3709      C3710   1.398       .  A
C3709      H3718   1.083       .  S
C3710      C3713   1.371       .  A
S3711      C3712   1.729       .  A
C3712      C3713   1.385   1_565  A
C3713      H3719   1.083       .  S
S3714      C3715   1.726   1_655  A
C3715      C3716   1.389   1_455  A
C3716      H3720   1.083   1_655  S
C3721      S3727   1.709       .  A
C3721      C3726   1.387       .  A
C3721      C3722   1.401       .  A
C3722      C3723   1.403       .  A
C3722      H3733   1.083       .  S
C3723      C3732   1.367       .  A
C3723      C3724   1.387       .  A
C3724      S3730   1.703       .  A
C3724      C3725   1.397       .  A
C3725      C3726   1.399       .  A
C3725      H3734   1.083       .  S
C3726      C3729   1.363       .  A
S3727      C3728   1.723       .  A
C3728      C3729   1.385       .  A
C3729      H3735   1.083       .  S
S3730      C3731   1.721       .  A
C3731      C3732   1.388       .  A
C3732      H3736   1.083       .  S
C3737      S3743   1.715   1_545  A
C3737      C3742   1.386       .  A
C3737      C3738   1.405       .  A
C3738      C3739   1.407       .  A
C3738      H3749   1.083       .  S
C3739      C3748   1.372       .  A
C3739      C3740   1.387       .  A
C3740      S3746   1.698       .  A
C3740      C3741   1.393       .  A
C3741      C3742   1.396       .  A
C3741      H3750   1.083       .  S
C3742      C3745   1.360   1_545  A
S3743      C3744   1.725       .  A
C3744      C3745   1.386       .  A
C3745      H3751   1.084       .  S
S3746      C3747   1.719       .  A
C3747      C3748   1.390       .  A
C3748      H3752   1.083       .  S
C3753      S3759   1.711       .  A
C3753      C3758   1.387       .  A
C3753      C3754   1.407       .  A
C3754      C3755   1.407       .  A
C3754      H3765   1.083       .  S
C3755      C3764   1.378       .  A
C3755      C3756   1.388       .  A
C3756      S3762   1.693       .  A
C3756      C3757   1.394       .  A
C3757      C3758   1.394       .  A
C3757      H3766   1.083       .  S
C3758      C3761   1.363       .  A
S3759      C3760   1.728       .  A
C3760      C3761   1.382       .  A
C3761      H3767   1.083       .  S
S3762      C3763   1.723       .  A
C3763      C3764   1.389       .  A
C3764      H3768   1.083       .  S
C3769      S3775   1.710   1_565  A
C3769      C3774   1.386       .  A
C3769      C3770   1.404       .  A
C3770      C3771   1.405       .  A
C3770      H3781   1.083       .  S
C3771      C3780   1.374       .  A
C3771      C3772   1.387       .  A
C3772      S3778   1.706       .  A
C3772      C3773   1.402       .  A
C3773      C3774   1.402       .  A
C3773      H3782   1.083       .  S
C3774      C3777   1.371   1_565  A
S3775      C3776   1.725       .  A
C3776      C3777   1.389       .  A
C3777      H3783   1.083       .  S
S3778      C3779   1.724       .  A
C3779      C3780   1.390       .  A
C3780      H3784   1.083       .  S
C3785      S3791   1.710       .  A
C3785      C3790   1.386       .  A
C3785      C3786   1.400       .  A
C3786      C3787   1.403       .  A
C3786      H3797   1.083       .  S
C3787      C3796   1.367       .  A
C3787      C3788   1.386       .  A
C3788      S3794   1.707       .  A
C3788      C3789   1.399       .  A
C3789      C3790   1.402       .  A
C3789      H3798   1.083       .  S
C3790      C3793   1.365       .  A
S3791      C3792   1.724       .  A
C3792      C3793   1.388       .  A
C3793      H3799   1.083       .  S
S3794      C3795   1.723       .  A
C3795      C3796   1.388       .  A
C3796      H3800   1.083       .  S
C3801      S3807   1.708       .  A
C3801      C3806   1.386       .  A
C3801      C3802   1.403       .  A
C3802      C3803   1.404       .  A
C3802      H3813   1.083       .  S
C3803      C3812   1.373       .  A
C3803      C3804   1.386       .  A
C3804      S3810   1.711       .  A
C3804      C3805   1.405       .  A
C3805      C3806   1.405       .  A
C3805      H3814   1.083       .  S
C3806      C3809   1.376       .  A
S3807      C3808   1.726       .  A
C3808      C3809   1.390       .  A
C3809      H3815   1.083       .  S
S3810      C3811   1.726       .  A
C3811      C3812   1.390       .  A
C3812      H3816   1.083       .  S
C3817      S3823   1.711       .  A
C3817      C3822   1.386       .  A
C3817      C3818   1.405       .  A
C3818      C3819   1.406       .  A
C3818      H3829   1.083       .  S
C3819      C3828   1.375       .  A
C3819      C3820   1.387       .  A
C3820      S3826   1.697       .  A
C3820      C3821   1.395       .  A
C3821      C3822   1.396       .  A
C3821      H3830   1.083       .  S
C3822      C3825   1.363       .  A
S3823      C3824   1.726       .  A
C3824      C3825   1.384       .  A
C3825      H3831   1.083       .  S
S3826      C3827   1.723       .  A
C3827      C3828   1.389       .  A
C3828      H3832   1.083       .  S
C3833      S3839   1.710   1_455  A
C3833      C3838   1.387       .  A
C3833      C3834   1.403       .  A
C3834      C3835   1.404       .  A
C3834      H3845   1.083       .  S
C3835      C3844   1.372       .  A
C3835      C3836   1.387       .  A
C3836      S3842   1.701       .  A
C3836      C3837   1.397       .  A
C3837      C3838   1.398       .  A
C3837      H3846   1.083       .  S
C3838      C3841   1.364       .  A
S3839      C3840   1.725       .  A
C3840      C3841   1.385   1_655  A
C3841      H3847   1.083       .  S
S3842      C3843   1.723       .  A
C3843      C3844   1.388       .  A
C3844      H3848   1.083       .  S
C3849      S3855   1.707       .  A
C3849      C3854   1.387       .  A
C3849      C3850   1.404       .  A
C3850      C3851   1.405       .  A
C3850      H3861   1.083       .  S
C3851      C3860   1.375       .  A
C3851      C3852   1.387       .  A
C3852      S3858   1.700       .  A
C3852      C3853   1.398       .  A
C3853      C3854   1.398       .  A
C3853      H3862   1.083       .  S
C3854      C3857   1.368       .  A
S3855      C3856   1.727       .  A
C3856      C3857   1.385       .  A
C3857      H3863   1.083       .  S
S3858      C3859   1.723       .  A
C3859      C3860   1.389       .  A
C3860      H3864   1.083       .  S
C3865      S3871   1.703       .  A
C3865      C3870   1.387       .  A
C3865      C3866   1.396       .  A
C3866      C3867   1.398       .  A
C3866      H3877   1.083       .  S
C3867      C3876   1.363       .  A
C3867      C3868   1.386       .  A
C3868      S3874   1.713       .  A
C3868      C3869   1.404       .  A
C3869      C3870   1.406       .  A
C3869      H3878   1.083       .  S
C3870      C3873   1.372       .  A
S3871      C3872   1.721       .  A
C3872      C3873   1.390       .  A
C3873      H3879   1.083       .  S
S3874      C3875   1.725   1_565  A
C3875      C3876   1.386   1_545  A
C3876      H3880   1.083       .  S
C3881      S3887   1.712       .  A
C3881      C3886   1.386       .  A
C3881      C3882   1.403       .  A
C3882      C3883   1.405       .  A
C3882      H3893   1.083       .  S
C3883      C3892   1.371       .  A
C3883      C3884   1.387       .  A
C3884      S3890   1.704       .  A
C3884      C3885   1.397       .  A
C3885      C3886   1.399       .  A
C3885      H3894   1.083       .  S
C3886      C3889   1.364       .  A
S3887      C3888   1.725       .  A
C3888      C3889   1.385       .  A
C3889      H3895   1.083       .  S
S3890      C3891   1.722       .  A
C3891      C3892   1.389       .  A
C3892      H3896   1.083       .  S
C3897      S3903   1.716       .  A
C3897      C3902   1.385       .  A
C3897      C3898   1.405       .  A
C3898      C3899   1.407       .  A
C3898      H3909   1.083       .  S
C3899      C3908   1.373       .  A
C3899      C3900   1.386       .  A
C3900      S3906   1.713       .  A
C3900      C3901   1.404       .  A
C3901      C3902   1.406       .  A
C3901      H3910   1.083       .  S
C3902      C3905   1.372       .  A
S3903      C3904   1.726       .  A
C3904      C3905   1.392       .  A
C3905      H3911   1.083       .  S
S3906      C3907   1.726       .  A
C3907      C3908   1.392       .  A
C3908      H3912   1.083       .  S
C3913      S3919   1.710       .  A
C3913      C3918   1.386       .  A
C3913      C3914   1.405       .  A
C3914      C3915   1.405       .  A
C3914      H3925   1.083       .  S
C3915      C3924   1.375       .  A
C3915      C3916   1.386       .  A
C3916      S3922   1.708       .  A
C3916      C3917   1.403       .  A
C3917      C3918   1.404       .  A
C3917      H3926   1.083       .  S
C3918      C3921   1.374       .  A
S3919      C3920   1.726       .  A
C3920      C3921   1.390       .  A
C3921      H3927   1.083       .  S
S3922      C3923   1.725       .  A
C3923      C3924   1.390       .  A
C3924      H3928   1.083       .  S
C3929      S3935   1.699       .  A
C3929      C3934   1.387       .  A
C3929      C3930   1.400       .  A
C3930      C3931   1.399       .  A
C3930      H3941   1.083       .  S
C3931      C3940   1.370       .  A
C3931      C3932   1.387       .  A
C3932      S3938   1.707       .  A
C3932      C3933   1.405       .  A
C3933      C3934   1.404       .  A
C3933      H3942   1.083       .  S
C3934      C3937   1.377       .  A
S3935      C3936   1.727   1_565  A
C3936      C3937   1.389   1_545  A
C3937      H3943   1.083   1_565  S
S3938      C3939   1.726       .  A
C3939      C3940   1.385       .  A
C3940      H3944   1.083       .  S
C3945      S3951   1.695       .  A
C3945      C3950   1.387       .  A
C3945      C3946   1.399       .  A
C3946      C3947   1.398       .  A
C3946      H3957   1.083       .  S
C3947      C3956   1.373       .  A
C3947      C3948   1.387       .  A
C3948      S3954   1.709       .  A
C3948      C3949   1.409       .  A
C3949      C3950   1.407       .  A
C3949      H3958   1.083       .  S
C3950      C3953   1.382       .  A
S3951      C3952   1.726       .  A
C3952      C3953   1.391       .  A
C3953      H3959   1.083       .  S
S3954      C3955   1.730       .  A
C3955      C3956   1.385       .  A
C3956      H3960   1.083       .  S
C3961      S3967   1.712       .  A
C3961      C3966   1.386       .  A
C3961      C3962   1.402       .  A
C3962      C3963   1.404       .  A
C3962      H3973   1.083       .  S
C3963      C3972   1.369       .  A
C3963      C3964   1.387       .  A
C3964      S3970   1.705       .  A
C3964      C3965   1.397       .  A
C3965      C3966   1.400       .  A
C3965      H3974   1.083       .  S
C3966      C3969   1.364       .  A
S3967      C3968   1.725       .  A
C3968      C3969   1.387       .  A
C3969      H3975   1.083       .  S
S3970      C3971   1.722       .  A
C3971      C3972   1.388       .  A
C3972      H3976   1.083       .  S
C3977      S3983   1.707       .  A
C3977      C3982   1.386       .  A
C3977      C3978   1.397       .  A
C3978      C3979   1.400       .  A
C3978      H3989   1.083       .  S
C3979      C3988   1.365       .  A
C3979      C3980   1.385       .  A
C3980      S3986   1.717       .  A
C3980      C3981   1.407       .  A
C3981      C3982   1.409       .  A
C3981      H3990   1.083       .  S
C3982      C3985   1.373       .  A
S3983      C3984   1.720       .  A
C3984      C3985   1.393       .  A
C3985      H3991   1.083       .  S
S3986      C3987   1.727       .  A
C3987      C3988   1.388       .  A
C3988      H3992   1.083       .  S
C3993      S3999   1.712       .  A
C3993      C3998   1.386       .  A
C3993      C3994   1.407   1_655  A
C3994      C3995   1.407       .  A
C3994      H4005   1.083       .  S
C3995      C4004   1.378       .  A
C3995      C3996   1.386       .  A
C3996      S4002   1.709       .  A
C3996      C3997   1.405   1_455  A
C3997      C3998   1.405       .  A
C3997      H4006   1.083       .  S
C3998      C4001   1.376       .  A
S3999      C4000   1.728       .  A
C4000      C4001   1.391       .  A
C4001      H4007   1.083       .  S
S4002      C4003   1.727       .  A
C4003      C4004   1.391       .  A
C4004      H4008   1.083       .  S
C4009      S4015   1.698       .  A
C4009      C4014   1.388       .  A
C4009      C4010   1.398       .  A
C4010      C4011   1.398       .  A
C4010      H4021   1.083       .  S
C4011      C4020   1.367       .  A
C4011      C4012   1.387       .  A
C4012      S4018   1.705       .  A
C4012      C4013   1.402       .  A
C4013      C4014   1.402       .  A
C4013      H4022   1.083       .  S
C4014      C4017   1.373       .  A
S4015      C4016   1.724       .  A
C4016      C4017   1.386       .  A
C4017      H4023   1.083       .  S
S4018      C4019   1.725       .  A
C4019      C4020   1.384       .  A
C4020      H4024   1.083       .  S
C4025      S4031   1.693       .  A
C4025      C4030   1.388       .  A
C4025      C4026   1.397       .  A
C4026      C4027   1.395       .  A
C4026      H4037   1.083       .  S
C4027      C4036   1.368       .  A
C4027      C4028   1.387       .  A
C4028      S4034   1.705       .  A
C4028      C4029   1.405       .  A
C4029      C4030   1.404       .  A
C4029      H4038   1.083       .  S
C4030      C4033   1.378       .  A
S4031      C4032   1.726   1_455  A
C4032      C4033   1.388   1_655  A
C4033      H4039   1.083   1_455  S
S4034      C4035   1.728       .  A
C4035      C4036   1.382       .  A
C4036      H4040   1.083       .  S
C4041      S4047   1.708       .  A
C4041      C4046   1.387       .  A
C4041      C4042   1.403       .  A
C4042      C4043   1.404       .  A
C4042      H4053   1.083       .  S
C4043      C4052   1.370       .  A
C4043      C4044   1.387       .  A
C4044      S4050   1.704       .  A
C4044      C4045   1.398       .  A
C4045      C4046   1.400       .  A
C4045      H4054   1.083       .  S
C4046      C4049   1.367       .  A
S4047      C4048   1.724       .  A
C4048      C4049   1.386       .  A
C4049      H4055   1.083       .  S
S4050      C4051   1.721       .  A
C4051      C4052   1.389       .  A
C4052      H4056   1.083       .  S
C4057      S4063   1.716       .  A
C4057      C4062   1.386       .  A
C4057      C4058   1.404       .  A
C4058      C4059   1.407       .  A
C4058      H4069   1.083       .  S
C4059      C4068   1.372       .  A
C4059      C4060   1.386       .  A
C4060      S4066   1.710       .  A
C4060      C4061   1.400       .  A
C4061      C4062   1.403       .  A
C4061      H4070   1.083       .  S
C4062      C4065   1.366       .  A
S4063      C4064   1.725       .  A
C4064      C4065   1.389       .  A
C4065      H4071   1.083       .  S
S4066      C4067   1.723       .  A
C4067      C4068   1.392       .  A
C4068      H4072   1.083       .  S
C4073      S4079   1.702       .  A
C4073      C4078   1.387       .  A
C4073      C4074   1.401       .  A
C4074      C4075   1.400       .  A
C4074      H4085   1.083       .  S
C4075      C4084   1.373       .  A
C4075      C4076   1.386       .  A
C4076      S4082   1.708       .  A
C4076      C4077   1.406       .  A
C4077      C4078   1.406       .  A
C4077      H4086   1.083       .  S
C4078      C4081   1.377       .  A
S4079      C4080   1.724       .  A
C4080      C4081   1.391       .  A
C4081      H4087   1.083       .  S
S4082      C4083   1.729       .  A
C4083      C4084   1.387       .  A
C4084      H4088   1.083       .  S
C4089      S4095   1.709       .  A
C4089      C4094   1.386       .  A
C4089      C4090   1.407       .  A
C4090      C4091   1.407       .  A
C4090      H4101   1.083       .  S
C4091      C4100   1.378       .  A
C4091      C4092   1.386       .  A
C4092      S4098   1.708   1_545  A
C4092      C4093   1.404       .  A
C4093      C4094   1.403       .  A
C4093      H4102   1.083   1_545  S
C4094      C4097   1.377       .  A
S4095      C4096   1.730       .  A
C4096      C4097   1.389       .  A
C4097      H4103   1.083       .  S
S4098      C4099   1.724   1_565  A
C4099      C4100   1.393       .  A
C4100      H4104   1.083       .  S
