geometry optimzed in LAMMPS
_audit_creation_date              2020-11-30 
_audit_creation_method            'lammps2cif' 
_symmetry_space_group_name_H-M    'P1' 
_symmetry_Int_Tables_number       1 
_symmetry_cell_setting            triclinic 
loop_ 
_symmetry_equiv_pos_as_xyz 
  x,y,z 
_cell_length_a                    50.06158862 
_cell_length_b                    50.18012302890521 
_cell_length_c                    47.67328542756107 
_cell_angle_alpha                 89.55531831284716 
_cell_angle_beta                  90.33915061860084 
_cell_angle_gamma                 120.02334510943035 
loop_ 
_atom_site_label 
_atom_site_type_symbol 
_atom_site_fract_x 
_atom_site_fract_y 
_atom_site_fract_z 
_atom_site_charge 
O1          O  0.32101922  0.37555999  0.54763126    -0.82300
O2          O  0.29496185  0.38847187  0.67192531    -0.67000
O3          O  0.32392492  0.40902834  0.59627778    -1.13600
C4          C  0.40448248  0.39309073  0.62828746     1.04600
O5          O  0.34208644  0.41964715  0.68760506    -0.80200
O6          O  0.39020364  0.44861602  0.65370882    -0.67800
Ni7        Ni  0.29721661  0.39182300  0.56505279     1.34900
C8          C  0.39570267  0.45993427  0.62913857     0.83300
O9          O  0.27549268  0.40742709  0.62702765    -0.80800
O10         O  0.27146837  0.40673138  0.57981947    -0.91000
C11         C  0.31326307  0.40331695  0.69178936     0.82900
O12         O  0.27038480  0.35200123  0.58024592    -0.69200
O13         O  0.39780715  0.39827338  0.65270182    -0.88500
C14         C  0.26543814  0.34039655  0.60471442     0.83700
C15         C  0.26352832  0.41050446  0.60429613     1.05300
H16         H  0.33245438  0.36771264  0.64016117     0.37100
O17         O  0.34106508  0.38966780  0.63804321    -1.11200
O18         O  0.38480276  0.44365400  0.60716970    -0.67800
Ni19       Ni  0.35658925  0.40032565  0.60060611     1.26300
O20         O  0.27978009  0.35551078  0.62633462    -0.68100
O21         O  0.38944685  0.39184367  0.60623737    -0.80400
C22         C  0.35014721  0.38835784  0.54446307     0.83100
O23         O  0.36833684  0.40800403  0.56202389    -0.67500
Ni24       Ni  0.36859301  0.40810241  0.66863544     1.27400
Ni25       Ni  0.30807404  0.39825670  0.63350983     1.26100
H26         H  0.33267610  0.43103268  0.59446142     0.37600
O27         O  0.38490409  0.31465539  0.45351250    -0.82300
O28         O  0.39781926  0.28837673  0.32900771    -0.67000
O29         O  0.41818225  0.31741385  0.40465174    -1.13600
C30         C  0.40399264  0.39878690  0.37270432     1.04600
O31         O  0.42841057  0.33533963  0.31254268    -0.80200
O32         O  0.45857533  0.38229074  0.34699191    -0.67800
Ni33       Ni  0.40099349  0.29086232  0.43599818     1.34900
C34         C  0.46984740  0.38802285  0.37154739     0.83300
O35         O  0.41688479  0.26924996  0.37401485    -0.80800
O36         O  0.41565845  0.26503197  0.42120073    -0.91000
C37         C  0.41258062  0.30646607  0.30891385     0.82900
O38         O  0.36101260  0.26454791  0.42098217    -0.69200
O39         O  0.40953407  0.39221827  0.34841573    -0.88500
C40         C  0.34911244  0.25944341  0.39665219     0.83700
C41         C  0.41986912  0.25733526  0.39680539     1.05300
H42         H  0.37702170  0.32611743  0.36059886     0.37100
O43         O  0.39900454  0.33460787  0.36276116    -1.11200
O44         O  0.45332803  0.37800789  0.39358395    -0.67800
Ni45       Ni  0.40971562  0.35015682  0.40023857     1.26300
O46         O  0.36435071  0.27321349  0.37477272    -0.68100
O47         O  0.40160965  0.38318447  0.39464128    -0.80400
C48         C  0.39727343  0.34368315  0.45637400     0.83100
O49         O  0.41714019  0.36185928  0.43884447    -0.73500
Ni50       Ni  0.41797301  0.36223003  0.33219329     1.27400
Ni51       Ni  0.40743838  0.30155364  0.36743777     1.26100
H52         H  0.44021917  0.32604688  0.40642874     0.37600
O53         O  0.17484150  0.05581842  0.45412754    -0.82300
O54         O  0.20336550  0.09261155  0.32904762    -0.67000
O55         O  0.17277397  0.08491483  0.40401969    -1.13600
C56         C  0.09386052  0.48774987  0.37140231     1.04600
O57         O  0.15640933  0.07880745  0.31481889    -0.80200
O58         O  0.10594300  0.05556107  0.34561791    -0.67800
Ni59       Ni  0.19860105  0.09549553  0.43594323     1.34900
C60         C  0.10050685  0.06225079  0.36967960     0.83300
O61         O  0.22228656  0.13146716  0.37328646    -0.80800
O62         O  0.22436354  0.13590474  0.42039720    -0.91000
C63         C  0.18477563  0.08965137  0.30946870     0.82900
O64         O  0.22618634  0.08276654  0.42267799    -0.69200
O65         O  0.10199401  0.49933240  0.34681548    -0.88500
C66         C  0.23161654  0.07519641  0.39896049     0.83700
C67         C  0.23336193  0.14703020  0.39575908     1.05300
H68         H  0.16538933  0.03487843  0.36171287     0.37100
O69         O  0.15674938  0.04825363  0.36310075    -1.11200
O70         O  0.11224301  0.05850988  0.39207273    -0.67800
Ni71       Ni  0.14026547  0.04334376  0.39988731     1.26300
O72         O  0.21760026  0.07508094  0.37658935    -0.68100
O73         O  0.10746946  0.50195523  0.39381165    -0.80400
C74         C  0.14572417  0.03873060  0.45668521     0.83100
O75         O  0.12755068  0.03901929  0.43817496    -0.67500
Ni76       Ni  0.13027646  0.03934654  0.33182332     1.27400
Ni77       Ni  0.18969955  0.08972934  0.36729750     1.26100
H78         H  0.16381721  0.09805426  0.40472894     0.37600
O79         O  0.11342974  0.43265830  0.54974312    -0.82300
O80         O  0.10411501  0.39065939  0.67214693    -0.67000
O81         O  0.08042827  0.40068436  0.59812975    -1.13600
C82         C  0.09040439  0.49230299  0.63314720     1.04600
O83         O  0.07049531  0.40214438  0.69006116    -0.80200
O84         O  0.03704263  0.41544740  0.65529751    -0.67800
Ni85       Ni  0.09651654  0.39188401  0.56588383     1.34900
C86         C  0.02732631  0.41487925  0.63058673     0.83300
O87         O  0.08530644  0.35405548  0.62661092    -0.80800
O88         O  0.08093579  0.35056407  0.57951939    -0.91000
C89         C  0.08896468  0.39185799  0.69284795     0.82900
O90         O  0.13651756  0.40323487  0.57987148    -0.69200
O91         O  0.08151215  0.47691744  0.65604869    -0.88500
C92         C  0.14962948  0.41131217  0.60363427     0.83700
C93         C  0.07985911  0.33895449  0.60377081     1.05300
H94         H  0.12070444  0.44921504  0.64417807     0.37100
O95         O  0.09902959  0.43506033  0.64097315    -1.11200
O96         O  0.04534145  0.42629606  0.60966547    -0.67800
Ni97       Ni  0.08894182  0.44175280  0.60379321     1.26300
O98         O  0.13572531  0.41189720  0.62565410    -0.68100
O99         O  0.09719952  0.48254098  0.61126954    -0.80400
C100        C  0.10101761  0.44937474  0.54737288     0.83100
O101        O  0.08183989  0.44793128  0.56542407    -0.67500
Ni102      Ni  0.07692090  0.43909867  0.67133959     1.27400
Ni103      Ni  0.09268608  0.39476190  0.63450619     1.26100
H104        H  0.05834017  0.38728703  0.59701708     0.37600
O105        O  0.06062591  0.16831685  0.54874783    -0.82300
O106        O  0.09630746  0.19673975  0.67297624    -0.67000
O107        O  0.09018316  0.16609453  0.59850292    -1.13600
C108        C  0.49423380  0.08469853  0.62924591     1.04600
O109        O  0.08154472  0.15032314  0.68996666    -0.80200
O110        O  0.06465994  0.10187421  0.65711919    -0.67800
Ni111      Ni  0.10053864  0.19198140  0.56654421     1.34900
C112        C  0.06968088  0.09500716  0.63294254     0.83300
O113        O  0.13557738  0.21593499  0.62900834    -0.80800
O114        O  0.14103571  0.21743159  0.58194645    -0.91000
C115        C  0.09342782  0.17912831  0.69340709     0.82900
O116        O  0.08812546  0.21990506  0.57970834    -0.69200
O117        O  0.00606787  0.09193819  0.65375476    -0.88500
C118        C  0.07956483  0.22464545  0.60324023     0.83700
C119        C  0.15161837  0.22665746  0.60665326     1.05300
H120        H  0.03888324  0.15727826  0.64049754     0.37100
O121        O  0.05278079  0.14922566  0.63916144    -1.11200
O122        O  0.06407568  0.10519862  0.61039665    -0.67800
Ni123      Ni  0.04884387  0.13320103  0.60215615     1.26300
O124        O  0.07846526  0.20989902  0.62542022    -0.68100
O125        O  0.00753018  0.10008623  0.60723474    -0.80400
C126        C  0.04430654  0.13925554  0.54580751     0.83100
O127        O  0.04561518  0.12117559  0.56378337    -0.67500
Ni128      Ni  0.04422836  0.12249989  0.67033172     1.27400
Ni129      Ni  0.09403999  0.18282892  0.63503270     1.26100
H130        H  0.10367942  0.15752317  0.59800798     0.37600
O131        O  0.43823100  0.10684757  0.45230511    -0.82300
O132        O  0.39703592  0.09656195  0.32953421    -0.67000
O133        O  0.40665351  0.07364723  0.40413371    -1.13600
C134        C  0.99996139  0.08602930  0.36898541     1.04600
O135        O  0.40766889  0.06157744  0.31436118    -0.80200
O136        O  0.42661675  0.03134186  0.34678408    -0.67800
Ni137      Ni  0.39754687  0.08969737  0.43610759     1.34900
C138        C  0.42416565  0.02121990  0.37159956     0.83300
O139        O  0.36019490  0.07875983  0.37529523    -0.80800
O140        O  0.35635505  0.07392347  0.42236576    -0.91000
C141        C  0.39818264  0.08037984  0.30975117     0.82900
O142        O  0.40892716  0.12948189  0.42172113    -0.69200
O143        O  0.48593678  0.07923389  0.34533301    -0.88500
C144        C  0.41777352  0.14266929  0.39802501     0.83700
C145        C  0.34499670  0.07334050  0.39814480     1.05300
H146        H  0.45551571  0.11381600  0.35862126     0.37100
O147        O  0.44140405  0.09211724  0.36157924    -1.11200
O148        O  0.43250708  0.03860000  0.39302876    -0.67800
Ni149      Ni  0.44787242  0.08212934  0.39872676     1.26300
O150        O  0.41833400  0.12872532  0.37608506    -0.68100
O151        O  0.48872959  0.09023437  0.39134279    -0.80400
C152        C  0.45501019  0.09456456  0.45516297     0.83100
O153        O  0.45396027  0.07545731  0.43727187    -0.67500
Ni154      Ni  0.44660925  0.07139290  0.33097504     1.27400
Ni155      Ni  0.40092900  0.08573642  0.36758354     1.26100
H156        H  0.39326444  0.05160540  0.40532682     0.37600
O157        O  0.34172440  0.42419703  0.81254367    -0.82300
O158        O  0.37296679  0.40916757  0.93661958    -0.67000
O159        O  0.34332482  0.39307023  0.86087246    -1.13600
C160        C  0.26572481  0.41176549  0.89704974     1.04600
O161        O  0.32604985  0.37852107  0.95293148    -0.80200
O162        O  0.27481533  0.35403996  0.92113074    -0.67800
Ni163      Ni  0.37026198  0.41434315  0.83038500     1.34900
C164        C  0.26878265  0.34220708  0.89685421     0.83300
O165        O  0.39205717  0.39406099  0.89091282    -0.80800
O166        O  0.40168574  0.40663159  0.84525061    -0.91000
C167        C  0.35519863  0.39050313  0.95512311     0.82900
O168        O  0.38923594  0.45420007  0.84624360    -0.69200
O169        O  0.27453266  0.40811071  0.92130501    -0.88500
C170        C  0.39639178  0.46395813  0.87110817     0.83700
C171        C  0.40796020  0.39872280  0.86881628     1.05300
H172        H  0.33592399  0.43323024  0.90538241     0.37100
O173        O  0.32711709  0.41122950  0.90372110    -1.11200
O174        O  0.28211137  0.35734700  0.87472004    -0.67800
Ni175      Ni  0.30986264  0.40049002  0.86676022     1.26300
O176        O  0.38794128  0.44614125  0.89240603    -0.68100
O177        O  0.27719143  0.40902549  0.87410662    -0.80400
C178        C  0.31314690  0.40627768  0.80840652     0.83100
O179        O  0.29555471  0.39076661  0.82851344    -0.67500
Ni180      Ni  0.30141539  0.39407826  0.93558587     1.27400
Ni181      Ni  0.35969608  0.40255250  0.89817594     1.26100
H182        H  0.33519286  0.37132938  0.85788387     0.37600
O183        O  0.43493772  0.33214541  0.18664495    -0.82300
O184        O  0.41989548  0.36224371  0.06325238    -0.67000
O185        O  0.40311215  0.33344097  0.13912477    -1.13600
C186        C  0.42063538  0.25477489  0.10396507     1.04600
O187        O  0.38791672  0.31538886  0.04780861    -0.80200
O188        O  0.36349985  0.26405672  0.07992474    -0.67800
Ni189      Ni  0.42409746  0.36019512  0.16952063     1.34900
C190        C  0.35165677  0.25861703  0.10424616     0.83300
O191        O  0.40539920  0.38271218  0.10865928    -0.80800
O192        O  0.41521341  0.39075014  0.15487050    -0.91000
C193        C  0.40050955  0.34454561  0.04524999     0.82900
O194        O  0.46407682  0.38033594  0.15358534    -0.69200
O195        O  0.41766318  0.26380743  0.07953516    -0.88500
C196        C  0.47420672  0.38616571  0.12871277     0.83700
C197        C  0.40845692  0.39771387  0.13105915     1.05300
H198        H  0.44284284  0.32474953  0.09501203     0.37100
O199        O  0.42084306  0.31636399  0.09669786    -1.11200
O200        O  0.36674547  0.27244853  0.12616034    -0.67800
Ni201      Ni  0.40998883  0.29960149  0.13381345     1.26300
O202        O  0.45670675  0.37676369  0.10728933    -0.68100
O203        O  0.41771439  0.26634495  0.12677611    -0.80400
C204        C  0.41642596  0.30400531  0.19195142     0.83100
O205        O  0.40030032  0.28595419  0.17238020    -0.67500
Ni206      Ni  0.40351813  0.29062842  0.06507930     1.27400
Ni207      Ni  0.41296675  0.34951353  0.10176543     1.26100
H208        H  0.38133015  0.32559368  0.14194792     0.37600
O209        O  0.15728942  0.07406711  0.18662820    -0.82300
O210        O  0.13006152  0.03874140  0.06253689    -0.67000
O211        O  0.15977691  0.04602643  0.13754130    -1.13600
C212        C  0.23735378  0.14448074  0.10550238     1.04600
O213        O  0.17687378  0.05395459  0.04666047    -0.80200
O214        O  0.22727073  0.07689893  0.07945426    -0.67800
Ni215      Ni  0.13278182  0.03507768  0.16862423     1.34900
C216        C  0.23386542  0.07164244  0.10385913     0.83300
O217        O  0.11030047  0.50078483  0.10598997    -0.80800
O218        O  0.10566699  0.49537472  0.15286207    -0.91000
C219        C  0.14765015  0.03788416  0.04402961     0.82900
O220        O  0.10730038  0.05037180  0.15505979    -0.69200
O221        O  0.23011080  0.13258579  0.08102585    -0.88500
C222        C  0.10294406  0.05905195  0.13130339     0.83700
C223        C  0.09732963  0.48517208  0.12798427     1.05300
H224        H  0.16749446  0.09676401  0.09508819     0.37100
O225        O  0.17612132  0.08336707  0.09663604    -1.11200
O226        O  0.22141337  0.07441857  0.12601835    -0.67800
Ni227      Ni  0.19224435  0.08790218  0.13387136     1.26300
O228        O  0.11582547  0.05743931  0.10897554    -0.68100
O229        O  0.22430708  0.12986858  0.12806200    -0.80400
C230        C  0.18592099  0.08695512  0.19191744     0.83100
O231        O  0.20499804  0.09085184  0.17262917    -0.67500
Ni232      Ni  0.20244521  0.09284982  0.06529450     1.27400
Ni233      Ni  0.14328650  0.04201150  0.10063884     1.26100
H234        H  0.16883402  0.03297576  0.13859361     0.37600
O235        O  0.07336451  0.40434344  0.81015881    -0.82300
O236        O  0.08312709  0.44912236  0.93424873    -0.67000
O237        O  0.10157889  0.43646630  0.85938253    -1.13600
C238        C  0.08203524  0.34016883  0.89812424     1.04600
O239        O  0.11455432  0.43376799  0.95079188    -0.80200
O240        O  0.13864173  0.40522863  0.92173503    -0.67800
Ni241      Ni  0.08093960  0.44180294  0.82806748     1.34900
C242        C  0.15156522  0.41245572  0.89788511     0.83300
O243        O  0.09925338  0.48391345  0.88815998    -0.80800
O244        O  0.08641748  0.48011745  0.84257168    -0.91000
C245        C  0.10191127  0.45024761  0.95282143     0.82900
O246        O  0.04045780  0.41950283  0.84292910    -0.69200
O247        O  0.08358393  0.35202968  0.92214717    -0.88500
C248        C  0.03018786  0.41798149  0.86746031     0.83700
C249        C  0.09372587  0.49453164  0.86588653     1.05300
H250        H  0.06021461  0.38858431  0.90352333     0.37100
O251        O  0.08230689  0.40191867  0.90244736    -1.11200
O252        O  0.13748551  0.41229754  0.87553538    -0.67800
Ni253      Ni  0.09453420  0.39580520  0.86637950     1.26300
O254        O  0.04755598  0.42766843  0.88901614    -0.68100
O255        O  0.08663123  0.35490628  0.87496957    -0.80400
C256        C  0.09094319  0.39299980  0.80796970     0.83100
O257        O  0.10577841  0.39133560  0.82893496    -0.67500
Ni258      Ni  0.09838040  0.39322674  0.93513733     1.27400
Ni259      Ni  0.09093361  0.44306516  0.89613226     1.26100
H260        H  0.12347988  0.45041542  0.85673493     0.37600
O261        O  0.08368021  0.15214736  0.81401298    -0.82300
O262        O  0.04769231  0.12073441  0.93854502    -0.67000
O263        O  0.05503372  0.15141044  0.86382592    -1.13600
C264        C  0.15425711  0.22768543  0.89699997     1.04600
O265        O  0.06264873  0.16747637  0.95421262    -0.80200
O266        O  0.09002223  0.22005878  0.92377934    -0.67800
Ni267      Ni  0.04492349  0.12562944  0.83208112     1.34900
C268        C  0.08236658  0.22589832  0.90007786     0.83300
O269        O  0.00979526  0.10123744  0.89470118    -0.80800
O270        O  0.00536123  0.09675288  0.84774062    -0.91000
C271        C  0.04644199  0.13829938  0.95687752     0.82900
O272        O  0.06183509  0.10113848  0.84456812    -0.69200
O273        O  0.14330622  0.21821096  0.92162078    -0.88500
C274        C  0.06941280  0.09524091  0.86824375     0.83700
C275        C  0.49481455  0.08802828  0.87252616     1.05300
H276        H  0.10590798  0.15825352  0.90509124     0.37100
O277        O  0.09246787  0.16689829  0.90451547    -1.11200
O278        O  0.08189250  0.21200525  0.87771146    -0.67800
Ni279      Ni  0.09666040  0.18441350  0.86807977     1.26300
O280        O  0.06657537  0.10667103  0.89110145    -0.68100
O281        O  0.13848271  0.21698380  0.87444224    -0.80400
C282        C  0.09569187  0.18089429  0.80985809     0.83100
O283        O  0.09919976  0.19881134  0.83000184    -0.67500
Ni284      Ni  0.10266058  0.19198692  0.93669528     1.27400
Ni285      Ni  0.05108379  0.13412335  0.90035212     1.26100
H286        H  0.04154463  0.15999631  0.86309842     0.37600
O287        O  0.41455880  0.06290794  0.19175469    -0.82300
O288        O  0.45652350  0.07279266  0.06601714    -0.67000
O289        O  0.44495841  0.09064881  0.14139926    -1.13600
C290        C  0.34717883  0.06950476  0.10515491     1.04600
O291        O  0.43997044  0.10338171  0.04997395    -0.80200
O292        O  0.41103720  0.12647217  0.08010704    -0.67800
Ni293      Ni  0.45134279  0.07034474  0.17237354     1.34900
C294        C  0.41899913  0.13953271  0.10382133     0.83300
O295        O  0.49218236  0.08939415  0.11122985    -0.80800
O296        O  0.48911635  0.07580883  0.15658287    -0.91000
C297        C  0.45725198  0.09160976  0.04767904     0.82900
O298        O  0.42855745  0.02999598  0.15768172    -0.69200
O299        O  0.35839591  0.07078345  0.08080421    -0.88500
C300        C  0.42696424  0.01964807  0.13319079     0.83700
C301        C  0.00315258  0.08363822  0.13307512     1.05300
H302        H  0.39631262  0.04871202  0.09819869     0.37100
O303        O  0.40938899  0.07080625  0.09905990    -1.11200
O304        O  0.41975072  0.12571744  0.12603691    -0.67800
Ni305      Ni  0.40392755  0.08299324  0.13538330     1.26300
O306        O  0.43643592  0.03694423  0.11150842    -0.68100
O307        O  0.36264253  0.07460869  0.12788801    -0.80400
C308        C  0.40263802  0.07996220  0.19393915     0.83100
O309        O  0.40019774  0.09428090  0.17294034    -0.67500
Ni310      Ni  0.39952288  0.08640822  0.06671031     1.27400
Ni311      Ni  0.45093646  0.08019787  0.10435143     1.26100
H312        H  0.45871616  0.11247909  0.14389239     0.37600
C313        C  0.51394797  0.09605093  0.99181381    -0.14800
C314        C  0.02385878  0.12544198  0.98025714     0.07400
C315        C  0.01162411  0.14305007  0.99102640    -0.14800
C316        C  0.98988080  0.13164792  0.01254069    -0.14800
C317        C  0.48011795  0.10251649  0.02445953     0.07400
C318        C  0.49260602  0.08487037  0.01408056    -0.14800
H319        H  0.52299937  0.08197651  0.98390750     0.11400
H320        H  0.01853855  0.16564727  0.98247377     0.11400
H321        H  0.98096482  0.14596807  0.02013090     0.11400
H322        H  0.48555167  0.06235174  0.02287935     0.11400
C323        C  0.07914147  0.29514847  0.87247809    -0.14800
C324        C  0.07611987  0.30808096  0.89749869     0.07400
C325        C  0.07056759  0.29122919  0.92261837    -0.14800
C326        C  0.07046069  0.26336143  0.92308913    -0.14800
C327        C  0.07574325  0.25153918  0.89844219     0.07400
C328        C  0.07887435  0.26710328  0.87293878    -0.14800
H329        H  0.08333862  0.30743397  0.85274771     0.11400
H330        H  0.06776712  0.30025131  0.94225620     0.11400
H331        H  0.06766231  0.25178261  0.94303921     0.11400
H332        H  0.08306116  0.25863006  0.85359211     0.11400
C333        C  0.08904627  0.03479460  0.89300028    -0.14800
C334        C  0.09361690  0.02403229  0.86728482     0.07400
C335        C  0.09399367  0.03952349  0.84251075    -0.14800
C336        C  0.08788764  0.06378653  0.84318531    -0.14800
C337        C  0.08099293  0.07310739  0.86863606     0.07400
C338        C  0.08272610  0.05905953  0.89366757    -0.14800
H339        H  0.08852313  0.02328740  0.91247519     0.11400
H340        H  0.09797157  0.53220537  0.82245221     0.11400
H341        H  0.08731385  0.07440459  0.82349530     0.11400
H342        H  0.07767265  0.06573569  0.91360747     0.11400
C343        C  0.10376920  0.50253078  0.01157850    -0.14800
C344        C  0.13480544  0.01594987  0.02029199     0.07400
C345        C  0.15414695  0.00749673  0.00654040    -0.14800
C346        C  0.14303764  0.48624111  0.98485093    -0.14800
C347        C  0.11233563  0.47305071  0.97577786     0.07400
C348        C  0.09271691  0.48154612  0.98911999    -0.14800
H349        H  0.08823148  0.50841107  0.02194286     0.11400
H350        H  0.17800207  0.01695693  0.01286211     0.11400
H351        H  0.15873869  0.48026797  0.97492588     0.11400
H352        H  0.06885783  0.47152135  0.98260783     0.11400
C353        C  0.06518113  0.06923369  0.10525107    -0.14800
C354        C  0.08113523  0.07075651  0.13007091     0.07400
C355        C  0.07406318  0.08103890  0.15477920    -0.14800
C356        C  0.05000496  0.08740411  0.15523537    -0.14800
C357        C  0.03258831  0.08379075  0.13096253     0.07400
C358        C  0.04105780  0.07574444  0.10569140    -0.14800
H359        H  0.07014287  0.06133797  0.08594035     0.11400
H360        H  0.08633069  0.08295307  0.17413508     0.11400
H361        H  0.54411738  0.09381386  0.17491771     0.11400
H362        H  0.02777295  0.07251749  0.08672305     0.11400
C363        C  0.27566267  0.06927898  0.13128513    -0.14800
C364        C  0.25885281  0.06405296  0.10621511     0.07400
C365        C  0.26910577  0.05598048  0.08206417    -0.14800
C366        C  0.29682779  0.05571900  0.08228912    -0.14800
C367        C  0.31503563  0.06350395  0.10668783     0.07400
C368        C  0.30353754  0.06903373  0.13151444    -0.14800
H369        H  0.26839920  0.07559829  0.15023908     0.11400
H370        H  0.25652498  0.05146357  0.06247920     0.11400
H371        H  0.30472795  0.05094079  0.06287925     0.11400
H372        H  0.31693708  0.07501571  0.15070774     0.11400
C373        C  0.02049607  0.42337752  0.10063657    -0.14800
C374        C  0.50790898  0.40602703  0.12522521     0.07400
C375        C  0.02744944  0.41076497  0.14824561    -0.14800
C376        C  0.05786418  0.43483762  0.14805043    -0.14800
C377        C  0.06943286  0.45461722  0.12478727     0.07400
C378        C  0.05113899  0.44755072  0.10040601    -0.14800
H379        H  0.50608052  0.41993546  0.08244377     0.11400
H380        H  0.01865151  0.39716189  0.16723069     0.11400
H381        H  0.07159397  0.43931273  0.16691849     0.11400
H382        H  0.05953725  0.46229274  0.08204265     0.11400
C383        C  0.30870846  0.21596538  0.13177201    -0.14800
C384        C  0.31928843  0.23335258  0.10687553     0.07400
C385        C  0.30035438  0.22327945  0.08294139    -0.14800
C386        C  0.27272263  0.19527434  0.08315388    -0.14800
C387        C  0.26325874  0.17661378  0.10732452     0.07400
C388        C  0.28088601  0.18778878  0.13199400    -0.14800
H389        H  0.32291193  0.22303863  0.15049459     0.11400
H390        H  0.30770910  0.23628820  0.06351440     0.11400
H391        H  0.25946329  0.18756715  0.06391070     0.11400
H392        H  0.27421429  0.17390843  0.15093285     0.11400
C393        C  0.40064463  0.43760315  0.15417399    -0.14800
C394        C  0.40592933  0.42581032  0.12956481     0.07400
C395        C  0.41315895  0.44337259  0.10473192    -0.14800
C396        C  0.41795470  0.47339182  0.10523030    -0.14800
C397        C  0.41534134  0.48614039  0.13052560     0.07400
C398        C  0.40512717  0.46731527  0.15462487    -0.14800
H399        H  0.39460883  0.42443811  0.17353400     0.11400
H400        H  0.41731128  0.43480482  0.08542366     0.11400
H401        H  0.42555776  0.98724070  0.08630898     0.11400
H402        H  0.40234682  0.47612338  0.17439871     0.11400
C403        C  0.42046627  0.21110236  0.13048634    -0.14800
C404        C  0.42620482  0.22836803  0.10558184     0.07400
C405        C  0.43399156  0.21809777  0.08126165    -0.14800
C406        C  0.43370781  0.19013020  0.08124269    -0.14800
C407        C  0.42580476  0.17179840  0.10557380     0.07400
C408        C  0.42031514  0.18308883  0.13048631    -0.14800
H409        H  0.41434873  0.21831325  0.14958250     0.11400
H410        H  0.43893863  0.23098653  0.06180947     0.11400
H411        H  0.43834073  0.18218248  0.06179314     0.11400
H412        H  0.41395621  0.16936984  0.14952300     0.11400
C413        C  0.22604512  0.29866237  0.86989070    -0.14800
C414        C  0.24343491  0.30977122  0.89468517     0.07400
C415        C  0.23333914  0.29122493  0.91892655    -0.14800
C416        C  0.20531640  0.26354096  0.91908210    -0.14800
C417        C  0.18657090  0.25360140  0.89498377     0.07400
C418        C  0.19784782  0.27082360  0.87004313    -0.14800
H419        H  0.23313278  0.31244981  0.85089716     0.11400
H420        H  0.24633500  0.29891598  0.93831253     0.11400
H421        H  0.19765181  0.25070114  0.93856861     0.11400
H422        H  0.18405450  0.26379308  0.85107712     0.11400
C423        C  0.43491977  0.50967706  0.89884274    -0.14800
C424        C  0.41670239  0.49756265  0.87467285     0.07400
C425        C  0.42059229  0.01757778  0.85222382    -0.14800
C426        C  0.44448326  0.04810008  0.85255231    -0.14800
C427        C  0.46474518  0.05939354  0.87548275     0.07400
C428        C  0.45873321  0.04042112  0.89926693    -0.14800
H429        H  0.43220811  0.49492465  0.91658505     0.11400
H430        H  0.40642332  0.00913733  0.83354463     0.11400
H431        H  0.44828902  0.06228405  0.83409842     0.11400
H432        H  0.97401889  0.04850366  0.91726633     0.11400
C433        C  0.20127408  0.42462913  0.92090796    -0.14800
C434        C  0.18390186  0.41919236  0.89620317     0.07400
C435        C  0.19601651  0.41566519  0.87085499    -0.14800
C436        C  0.22371618  0.41507581  0.87069236    -0.14800
C437        C  0.23979015  0.41809066  0.89587146     0.07400
C438        C  0.22884733  0.42409904  0.92074465    -0.14800
H439        H  0.19276914  0.42774863  0.94073839     0.11400
H440        H  0.18312883  0.41134394  0.85147372     0.11400
H441        H  0.23156638  0.41051829  0.85114419     0.11400
H442        H  0.24082816  0.42697224  0.94045979     0.11400
C443        C  0.44713333  0.38839429  0.84739917    -0.14800
C444        C  0.43635728  0.39690628  0.87080574     0.07400
C445        C  0.45501261  0.40778273  0.89487534    -0.14800
C446        C  0.48503293  0.41257696  0.89464552    -0.14800
C447        C  0.99672493  0.40633955  0.87039010     0.07400
C448        C  0.47693739  0.39278695  0.84728227    -0.14800
H449        H  0.43300974  0.37967929  0.82871625     0.11400
H450        H  0.44722111  0.41469707  0.91312850     0.11400
H451        H  0.99968162  0.42304977  0.91275121     0.11400
H452        H  0.48508183  0.38727586  0.82841200     0.11400
C453        C  0.34854043  0.35122243  0.99106846    -0.14800
C454        C  0.36771699  0.38006570  0.97854523     0.07400
C455        C  0.39830218  0.39770011  0.98832343    -0.14800
C456        C  0.40917122  0.38665206  0.01033938    -0.14800
C457        C  0.38994765  0.35737204  0.02226122     0.07400
C458        C  0.35957088  0.33992654  0.01230447    -0.14800
H459        H  0.32493990  0.33694036  0.98405432     0.11400
H460        H  0.41364372  0.42004034  0.97914689     0.11400
H461        H  0.43267535  0.40068764  0.01768424     0.11400
H462        H  0.34404846  0.31749253  0.02123327     0.11400
C463        C  0.40371630  0.11012527  0.26581855    -0.14800
C464        C  0.38870645  0.08220734  0.28080114     0.07400
C465        C  0.37183709  0.05461081  0.26595894    -0.14800
C466        C  0.37324704  0.05442847  0.23677548    -0.14800
C467        C  0.39132009  0.08187205  0.22187797     0.07400
C468        C  0.40502546  0.10995121  0.23637176    -0.14800
H469        H  0.41734766  0.13161649  0.27684717     0.11400
H470        H  0.36027147  0.03280591  0.27708427     0.11400
H471        H  0.36270522  0.03251873  0.22603611     0.11400
H472        H  0.41954779  0.13132830  0.22529851     0.11400
C473        C  0.12017459  0.17882342  0.73691157    -0.14800
C474        C  0.10448651  0.19098715  0.72191418     0.07400
C475        C  0.09284265  0.20722612  0.73653747    -0.14800
C476        C  0.09354879  0.20780244  0.76607637    -0.14800
C477        C  0.10589830  0.19214236  0.78100115     0.07400
C478        C  0.12089736  0.17941917  0.76612526    -0.14800
H479        H  0.12926429  0.16614538  0.72611243     0.11400
H480        H  0.08028150  0.21643237  0.72541428     0.11400
H481        H  0.08146448  0.21738598  0.77711547     0.11400
H482        H  0.13046734  0.16712619  0.77715916     0.11400
C483        C  0.98991145  0.08702757  0.48886133    -0.14800
C484        C  0.47761961  0.10501116  0.47855711     0.07400
C485        C  0.48744682  0.13394558  0.49060314    -0.14800
C486        C  0.50934241  0.14492594  0.51206612    -0.14800
C487        C  0.02155823  0.12702232  0.52257573     0.07400
C488        C  0.01138808  0.09776764  0.51102024    -0.14800
H489        H  0.98269032  0.06461596  0.48000145     0.11400
H490        H  0.47855394  0.14844611  0.48310782     0.11400
H491        H  0.51643119  0.16740079  0.52073855     0.11400
H492        H  0.02037736  0.08347068  0.51882388     0.11400
C493        C  0.06444390  0.36324759  0.73632874    -0.14800
C494        C  0.09163251  0.38117583  0.72108057     0.07400
C495        C  0.11998047  0.39575668  0.73546221    -0.14800
C496        C  0.12051929  0.39593927  0.76496452    -0.14800
C497        C  0.09271563  0.38149364  0.78007962     0.07400
C498        C  0.06498892  0.36336609  0.76557132    -0.14800
H499        H  0.04233542  0.35189480  0.72567770     0.11400
H500        H  0.14119756  0.41003536  0.72411692     0.11400
H501        H  0.14212617  0.41041157  0.77571665     0.11400
H502        H  0.04327756  0.35216454  0.77679138     0.11400
C503        C  0.07702585  0.29397979  0.63024082    -0.14800
C504        C  0.07344429  0.30671253  0.60505810     0.07400
C505        C  0.06681725  0.28945278  0.58030067    -0.14800
C506        C  0.06650289  0.26150611  0.58019650    -0.14800
C507        C  0.07260827  0.24999967  0.60486646     0.07400
C508        C  0.07652174  0.26580695  0.63015254    -0.14800
H509        H  0.08194892  0.30654970  0.64973150     0.11400
H510        H  0.06344573  0.29826022  0.56059596     0.11400
H511        H  0.06301814  0.24965608  0.56044738     0.11400
H512        H  0.08130602  0.25751026  0.64950640     0.11400
C513        C  0.09256824  0.03733445  0.65693427    -0.14800
C514        C  0.09123296  0.02220057  0.63191202     0.07400
C515        C  0.08699319  0.03397936  0.60643021    -0.14800
C516        C  0.08175317  0.05897531  0.60631734    -0.14800
C517        C  0.08094920  0.07270835  0.63167526     0.07400
C518        C  0.08768654  0.06232926  0.65680995    -0.14800
H519        H  0.09616667  0.02906319  0.67685812     0.11400
H520        H  0.08599516  0.52286450  0.58687329     0.11400
H521        H  0.07675474  0.06645247  0.58660157     0.11400
H522        H  0.08770215  0.07253725  0.67674667     0.11400
C523        C  0.17943941  0.11076126  0.26419991    -0.14800
C524        C  0.19469547  0.09875631  0.28011080     0.07400
C525        C  0.21330975  0.08936346  0.26623465    -0.14800
C526        C  0.21372261  0.08882073  0.23668514    -0.14800
C527        C  0.19555543  0.09770677  0.22097476     0.07400
C528        C  0.17987953  0.11025913  0.23502337    -0.14800
H529        H  0.16497024  0.11817867  0.27436022     0.11400
H530        H  0.22497401  0.07965678  0.27806619     0.11400
H531        H  0.22563578  0.07864305  0.22632416     0.11400
H532        H  0.16566901  0.11721462  0.22342227     0.11400
C533        C  0.15369040  0.00940762  0.49517454    -0.14800
C534        C  0.13360526  0.01653630  0.48049064     0.07400
C535        C  0.10226232  0.50150567  0.48825358    -0.14800
C536        C  0.09144781  0.48001738  0.51043867    -0.14800
C537        C  0.11163746  0.47265203  0.52461831     0.07400
C538        C  0.14281244  0.48769474  0.51683386    -0.14800
H539        H  0.17788472  0.02033055  0.48968737     0.11400
H540        H  0.08619367  0.50634624  0.47719397     0.11400
H541        H  0.06727250  0.46865328  0.51606998     0.11400
H542        H  0.15891784  0.48265183  0.52758480     0.11400
C543        C  0.07009902  0.08299168  0.34611605    -0.14800
C544        C  0.07867839  0.07401520  0.37104701     0.07400
C545        C  0.06419374  0.07391117  0.39624404    -0.14800
C546        C  0.03994046  0.08029217  0.39602760    -0.14800
C547        C  0.02979992  0.08674677  0.37060551     0.07400
C548        C  0.04592314  0.08917986  0.34588475    -0.14800
H549        H  0.08117073  0.08391493  0.32639432     0.11400
H550        H  0.07040001  0.06724816  0.41579529     0.11400
H551        H  0.52784262  0.07815334  0.41542282     0.11400
H552        H  0.03888369  0.09442021  0.32603801     0.11400
C553        C  0.27206591  0.07070633  0.37200892    -0.14800
C554        C  0.25689467  0.06812983  0.39746974     0.07400
C555        C  0.26881429  0.06296508  0.42233860    -0.14800
C556        C  0.29647319  0.06270370  0.42214412    -0.14800
C557        C  0.31301561  0.06770510  0.39707465     0.07400
C558        C  0.29997847  0.07059002  0.37181923    -0.14800
H559        H  0.26343181  0.07475808  0.35250469     0.11400
H560        H  0.25752424  0.06059441  0.44226687     0.11400
H561        H  0.30560863  0.06010371  0.44197616     0.11400
H562        H  0.31208203  0.07436725  0.35213523     0.11400
C563        C  0.44135222  0.30828162  0.26639802    -0.14800
C564        C  0.41302633  0.29510536  0.28050297     0.07400
C565        C  0.38563124  0.27803296  0.26505009    -0.14800
C566        C  0.38657881  0.27736660  0.23553271    -0.14800
C567        C  0.41493211  0.29377465  0.22140118     0.07400
C568        C  0.44229883  0.30756606  0.23721760    -0.14800
H569        H  0.46276286  0.32162963  0.27782345     0.11400
H570        H  0.36348960  0.26805209  0.27546112     0.11400
H571        H  0.36514505  0.26691316  0.22381332     0.11400
H572        H  0.46445024  0.32037553  0.22687312     0.11400
C573        C  0.41378642  0.44569296  0.39938182    -0.14800
C574        C  0.40229851  0.42720015  0.37533394     0.07400
C575        C  0.39375817  0.43843189  0.35200154    -0.14800
C576        C  0.39878062  0.46834882  0.35179345    -0.14800
C577        C  0.41278493  0.48791481  0.37482240     0.07400
C578        C  0.41909680  0.47592018  0.39909883    -0.14800
H579        H  0.42077214  0.43761837  0.41760058     0.11400
H580        H  0.38462821  0.42458277  0.33330025     0.11400
H581        H  0.39309558  0.97661783  0.33288614     0.11400
H582        H  0.42995353  0.49044182  0.41712677     0.11400
C583        C  0.43210439  0.19257206  0.42071362    -0.14800
C584        C  0.42599160  0.17532258  0.39606996     0.07400
C585        C  0.42354235  0.18816707  0.37052768    -0.14800
C586        C  0.42394010  0.21631048  0.37020491    -0.14800
C587        C  0.42687965  0.23195800  0.39542335     0.07400
C588        C  0.43266944  0.22058466  0.42037902    -0.14800
H589        H  0.43471914  0.18358885  0.44063960     0.11400
H590        H  0.41903592  0.17545789  0.35115789     0.11400
H591        H  0.41981844  0.22466216  0.35056869     0.11400
H592        H  0.43576683  0.23236977  0.44010092     0.11400
C593        C  0.01775863  0.42379112  0.39889672    -0.14800
C594        C  0.50373069  0.40852322  0.37381794     0.07400
C595        C  0.02193337  0.41571537  0.34951427    -0.14800
C596        C  0.05237005  0.43978388  0.34945621    -0.14800
C597        C  0.06548781  0.45725166  0.37373242     0.07400
C598        C  0.04846303  0.44798105  0.39886108    -0.14800
H599        H  0.50446245  0.41853240  0.41803195     0.11400
H600        H  0.01212906  0.40392898  0.32994942     0.11400
H601        H  0.06495416  0.44595573  0.32985300     0.11400
H602        H  0.05798666  0.46090136  0.41797914     0.11400
C603        C  0.30433199  0.21889355  0.36890003    -0.14800
C604        C  0.31634703  0.23495339  0.39413916     0.07400
C605        C  0.29808544  0.22450598  0.41839956    -0.14800
C606        C  0.26995278  0.19708250  0.41822481    -0.14800
C607        C  0.25926389  0.17925519  0.39377952     0.07400
C608        C  0.27597750  0.19118696  0.36872803    -0.14800
H609        H  0.31778659  0.22650496  0.34980146     0.11400
H610        H  0.30635687  0.23664306  0.43806760     0.11400
H611        H  0.25745181  0.18900359  0.43778585     0.11400
H612        H  0.26822260  0.17817810  0.34945294     0.11400
C613        C  0.28628407  0.37560692  0.73586347    -0.14800
C614        C  0.30212430  0.40316279  0.72040530     0.07400
C615        C  0.31441921  0.43129062  0.73452881    -0.14800
C616        C  0.31417470  0.43203466  0.76374130    -0.14800
C617        C  0.30173704  0.40465686  0.77946448     0.07400
C618        C  0.28608421  0.37635456  0.76536928    -0.14800
H619        H  0.27704671  0.35364444  0.72539773     0.11400
H620        H  0.32682294  0.45280014  0.72304635     0.11400
H621        H  0.32646107  0.45412570  0.77411310     0.11400
H622        H  0.27677469  0.35495459  0.77704363     0.11400
C623        C  0.22216513  0.29883296  0.63244174    -0.14800
C624        C  0.24031503  0.30826653  0.60803501     0.07400
C625        C  0.23131375  0.28827140  0.58507862    -0.14800
C626        C  0.20343193  0.26055099  0.58553625    -0.14800
C627        C  0.18382488  0.25229163  0.60891122     0.07400
C628        C  0.19405314  0.27103995  0.63286150    -0.14800
H629        H  0.22853931  0.31393068  0.65039865     0.11400
H630        H  0.24507339  0.29484077  0.56614201     0.11400
H631        H  0.19647828  0.24637488  0.56692383     0.11400
H632        H  0.17946919  0.26528781  0.65119552     0.11400
C633        C  0.42260018  0.01207792  0.65052980    -0.14800
C634        C  0.41666707  0.49360695  0.62669079     0.07400
C635        C  0.43315852  0.50725675  0.60192757    -0.14800
C636        C  0.45697644  0.03805012  0.60185694    -0.14800
C637        C  0.46456910  0.05558096  0.62657728     0.07400
C638        C  0.44625390  0.04262558  0.65047985    -0.14800
H639        H  0.40992957  0.00249908  0.66981131     0.11400
H640        H  0.42897522  0.49365391  0.58317888     0.11400
H641        H  0.97083282  0.04741767  0.58313338     0.11400
H642        H  0.45131353  0.05561966  0.66973821     0.11400
C643        C  0.22157817  0.41308253  0.63099664    -0.14800
C644        C  0.23794021  0.41730214  0.60590228     0.07400
C645        C  0.22735312  0.42463536  0.58126937    -0.14800
C646        C  0.19973092  0.42505521  0.58111924    -0.14800
C647        C  0.18201501  0.41829369  0.60561746     0.07400
C648        C  0.19383761  0.41363130  0.63085849    -0.14800
H649        H  0.22915155  0.40747461  0.65035000     0.11400
H650        H  0.23959430  0.42851219  0.56165034     0.11400
H651        H  0.19142545  0.42909690  0.56141132     0.11400
H652        H  0.18062713  0.40826665  0.65006229     0.11400
C653        C  0.45143905  0.40263751  0.60175901    -0.14800
C654        C  0.43257933  0.39072947  0.62560202     0.07400
C655        C  0.44345719  0.38162673  0.64883081    -0.14800
C656        C  0.47361931  0.38707410  0.64935872    -0.14800
C657        C  0.99369786  0.40210020  0.62678392     0.07400
C658        C  0.48185968  0.40838718  0.60237459    -0.14800
H659        H  0.44359136  0.40989321  0.58356242     0.11400
H660        H  0.42924231  0.37202257  0.66732419     0.11400
H661        H  0.48178610  0.38133187  0.66827538     0.11400
H662        H  0.99667248  0.41976602  0.58456672     0.11400
C663        C  0.34529551  0.34738899  0.51192680    -0.14800
C664        C  0.36255327  0.37781412  0.52152046     0.07400
C665        C  0.39171482  0.39722327  0.50962052    -0.14800
C666        C  0.40313584  0.38644023  0.48827776    -0.14800
C667        C  0.38600383  0.35576930  0.47908111     0.07400
C668        C  0.35699386  0.33642603  0.49126685    -0.14800
H669        H  0.32287437  0.33178474  0.52081879     0.11400
H670        H  0.40550064  0.42078938  0.51661708     0.11400
H671        H  0.42546890  0.40194921  0.47920544     0.11400
H672        H  0.34301968  0.31277362  0.48454188     0.11400
O673        O  0.32101630  0.87555528  0.54766912    -0.82300
O674        O  0.29494549  0.88847087  0.67196027    -0.67000
O675        O  0.32393791  0.90902958  0.59632597    -1.13600
C676        C  0.40451615  0.89314187  0.62832603     1.04600
O677        O  0.34205649  0.91959186  0.68771475    -0.80200
O678        O  0.39010885  0.94866183  0.65374961    -0.67800
Ni679      Ni  0.29722362  0.89182497  0.56510049     1.34900
C680        C  0.39565938  0.95994175  0.62916432     0.83300
O681        O  0.27551022  0.90744912  0.62707364    -0.80800
O682        O  0.27147538  0.90673096  0.57986809    -0.91000
C683        C  0.31322074  0.90328155  0.69184809     0.82900
O684        O  0.27039175  0.85200670  0.58029689    -0.69200
O685        O  0.39788724  0.89841698  0.65272311    -0.88500
C686        C  0.26543409  0.84040769  0.60476796     0.83700
C687        C  0.26353819  0.91051174  0.60434245     1.05300
H688        H  0.33245092  0.86771205  0.64024265     0.37100
O689        O  0.34106386  0.88966553  0.63810576    -1.11200
O690        O  0.38482473  0.94362329  0.60720812    -0.67800
Ni691      Ni  0.35658317  0.90029823  0.60065989     1.26300
O692        O  0.27977497  0.85552356  0.62638687    -0.68100
O693        O  0.38941784  0.89178317  0.60628874    -0.80400
C694        C  0.35014333  0.88833121  0.54450925     0.83100
O695        O  0.36833618  0.90796369  0.56207701    -0.67500
Ni696      Ni  0.36860999  0.90814550  0.66868553     1.27400
Ni697      Ni  0.30808057  0.89826565  0.63355809     1.26100
H698        H  0.33270084  0.93103523  0.59450673     0.37600
O699        O  0.38486754  0.81462437  0.45350108    -0.82300
O700        O  0.39782310  0.78834257  0.32900054    -0.67000
O701        O  0.41818100  0.81743539  0.40463132    -1.13600
C702        C  0.40390006  0.89873370  0.37270640     1.04600
O703        O  0.42828581  0.83529950  0.31243482    -0.80200
O704        O  0.45854368  0.88217783  0.34697232    -0.67800
Ni705      Ni  0.40102212  0.79088138  0.43598832     1.34900
C706        C  0.46977757  0.88800655  0.37154116     0.83300
O707        O  0.41692228  0.76927575  0.37401751    -0.80800
O708        O  0.41574876  0.76509437  0.42120495    -0.91000
C709        C  0.41252310  0.80640852  0.30887286     0.82900
O710        O  0.36105376  0.76451259  0.42097159    -0.69200
O711        O  0.40958267  0.89224643  0.34844013    -0.88500
C712        C  0.34914451  0.75941126  0.39664527     0.83700
C713        C  0.41993883  0.75738349  0.39680861     1.05300
H714        H  0.37697262  0.82605993  0.36054406     0.37100
O715        O  0.39895641  0.83457157  0.36272524    -1.11200
O716        O  0.45322419  0.87805926  0.39356406    -0.67800
Ni717      Ni  0.40962689  0.85011735  0.40021224     1.26300
O718        O  0.36436722  0.77319672  0.37476548    -0.68100
O719        O  0.40140677  0.88306495  0.39462157    -0.80400
C720        C  0.39720941  0.84364967  0.45636243     0.83100
O721        O  0.41704223  0.86183431  0.43881604    -0.73500
Ni722      Ni  0.41794138  0.86221755  0.33217073     1.27400
Ni723      Ni  0.40744311  0.80155377  0.36742171     1.26100
H724        H  0.44022355  0.82610819  0.40640477     0.37600
O725        O  0.17484181  0.55584220  0.45415487    -0.82300
O726        O  0.20337870  0.59264890  0.32904269    -0.67000
O727        O  0.17277925  0.58490829  0.40402171    -1.13600
C728        C  0.09378083  0.98779162  0.37144530     1.04600
O729        O  0.15641281  0.57882255  0.31484229    -0.80200
O730        O  0.10591605  0.55545853  0.34560135    -0.67800
Ni731      Ni  0.19861587  0.59549785  0.43594374     1.34900
C732        C  0.10048225  0.56216733  0.36965528     0.83300
O733        O  0.22226540  0.63148781  0.37327722    -0.80800
O734        O  0.22439950  0.63589634  0.42038827    -0.91000
C735        C  0.18477777  0.58968753  0.30947499     0.82900
O736        O  0.22617466  0.58272875  0.42268449    -0.69200
O737        O  0.10189669  0.99937525  0.34685718    -0.88500
C738        C  0.23163239  0.57520733  0.39895458     0.83700
C739        C  0.23337086  0.64703379  0.39575076     1.05300
H740        H  0.16544822  0.53489947  0.36171130     0.37100
O741        O  0.15678773  0.54825727  0.36309539    -1.11200
O742        O  0.11224640  0.55847192  0.39205188    -0.67800
Ni743      Ni  0.14028771  0.54332652  0.39987546     1.26300
O744        O  0.21764367  0.57513856  0.37657999    -0.68100
O745        O  0.10742565  0.00198238  0.39384676    -0.80400
C746        C  0.14572495  0.53874728  0.45670485     0.83100
O747        O  0.12755194  0.53898230  0.43816194    -0.67500
Ni748      Ni  0.13032521  0.53933079  0.33180863     1.27400
Ni749      Ni  0.18970807  0.58974425  0.36729437     1.26100
H750        H  0.16380889  0.59803540  0.40473794     0.37600
O751        O  0.11346028  0.93264099  0.54974733    -0.82300
O752        O  0.10410408  0.89066230  0.67217666    -0.67000
O753        O  0.08044505  0.90069053  0.59814286    -1.13600
C754        C  0.09044945  0.99232704  0.63308877     1.04600
O755        O  0.07056348  0.90224526  0.69012518    -0.80200
O756        O  0.03708812  0.91544858  0.65528531    -0.67800
Ni757      Ni  0.09654078  0.89188103  0.56590561     1.34900
C758        C  0.02736793  0.91490796  0.63058091     0.83300
O759        O  0.08531489  0.85406402  0.62664266    -0.80800
O760        O  0.08097061  0.85057608  0.57955004    -0.91000
C761        C  0.08898136  0.89189237  0.69288710     0.82900
O762        O  0.13653408  0.90324004  0.57990752    -0.69200
O763        O  0.08151412  0.97694130  0.65598679    -0.88500
C764        C  0.14963849  0.91131012  0.60367328     0.83700
C765        C  0.07990463  0.83897388  0.60380041     1.05300
H766        H  0.12073623  0.94922728  0.64418711     0.37100
O767        O  0.09906003  0.93508070  0.64097984    -1.11200
O768        O  0.04538467  0.92634864  0.60966114    -0.67800
Ni769      Ni  0.08898584  0.94176770  0.60378800     1.26300
O770        O  0.13573030  0.91189014  0.62569133    -0.68100
O771        O  0.09728762  0.98256829  0.61123799    -0.80400
C772        C  0.10104986  0.94935454  0.54735513     0.83100
O773        O  0.08189068  0.94794206  0.56541216    -0.67500
Ni774      Ni  0.07695554  0.93915382  0.67133006     1.27400
Ni775      Ni  0.09269210  0.89477046  0.63452911     1.26100
H776        H  0.05835555  0.88730374  0.59702556     0.37600
O777        O  0.06065146  0.66829453  0.54879953    -0.82300
O778        O  0.09631869  0.69678490  0.67302596    -0.67000
O779        O  0.09018963  0.66607705  0.59858134    -1.13600
C780        C  0.49424304  0.58471480  0.62932603     1.04600
O781        O  0.08152635  0.65038046  0.69007066    -0.80200
O782        O  0.06469534  0.60193425  0.65722639    -0.67800
Ni783      Ni  0.10056847  0.69194212  0.56660630     1.34900
C784        C  0.06968096  0.59502687  0.63305304     0.83300
O785        O  0.13558879  0.71593288  0.62907515    -0.80800
O786        O  0.14106450  0.71737841  0.58201796    -0.91000
C787        C  0.09344387  0.67919548  0.69347266     0.82900
O788        O  0.08819927  0.71990631  0.57974424    -0.69200
O789        O  0.00608571  0.59194942  0.65383209    -0.88500
C790        C  0.07964340  0.72467116  0.60326774     0.83700
C791        C  0.15163630  0.72663545  0.60672254     1.05300
H792        H  0.03889437  0.65731275  0.64056699     0.37100
O793        O  0.05278521  0.64925167  0.63923624    -1.11200
O794        O  0.06404727  0.60518662  0.61050097    -0.67800
Ni795      Ni  0.04884129  0.63320748  0.60223759     1.26300
O796        O  0.07849842  0.70991511  0.62545359    -0.68100
O797        O  0.00752313  0.60011888  0.60731891    -0.80400
C798        C  0.04429464  0.63923185  0.54588135     0.83100
O799        O  0.04559557  0.62115656  0.56386848    -0.67500
Ni800      Ni  0.04423040  0.62253684  0.67041666     1.27400
Ni801      Ni  0.09404937  0.68283885  0.63509968     1.26100
H802        H  0.10367452  0.65749191  0.59810297     0.37600
O803        O  0.43824202  0.60686203  0.45232599    -0.82300
O804        O  0.39703916  0.59654963  0.32951248    -0.67000
O805        O  0.40669711  0.57368947  0.40413027    -1.13600
C806        C  0.00004361  0.58614547  0.36894588     1.04600
O807        O  0.40769425  0.56156786  0.31438963    -0.80200
O808        O  0.42683707  0.53144628  0.34674859    -0.67800
Ni809      Ni  0.39756575  0.58972058  0.43610455     1.34900
C810        C  0.42433710  0.52131346  0.37156555     0.83300
O811        O  0.36020928  0.57875120  0.37527980    -0.80800
O812        O  0.35637322  0.57394779  0.42235143    -0.91000
C813        C  0.39818075  0.58034211  0.30974879     0.82900
O814        O  0.40895992  0.62951140  0.42172062    -0.69200
O815        O  0.48605740  0.57944533  0.34527565    -0.88500
C816        C  0.41778786  0.64269252  0.39801902     0.83700
C817        C  0.34501159  0.57334503  0.39812755     1.05300
H818        H  0.45554130  0.61387869  0.35863014     0.37100
O819        O  0.44144536  0.59217443  0.36157641    -1.11200
O820        O  0.43257362  0.53866892  0.39300779    -0.67800
Ni821      Ni  0.44792585  0.58218725  0.39872050     1.26300
O822        O  0.41832452  0.62874272  0.37607279    -0.68100
O823        O  0.48878497  0.59028210  0.39132334    -0.80400
C824        C  0.45502667  0.59458389  0.45518463     0.83100
O825        O  0.45401628  0.57551078  0.43727173    -0.67500
Ni826      Ni  0.44668984  0.57150118  0.33095204     1.27400
Ni827      Ni  0.40095440  0.58575715  0.36757429     1.26100
H828        H  0.39331833  0.55164621  0.40532546     0.37600
O829        O  0.34165939  0.92412101  0.81249150    -0.82300
O830        O  0.37294066  0.90912549  0.93662765    -0.67000
O831        O  0.34331703  0.89307258  0.86086677    -1.13600
C832        C  0.26573745  0.91178232  0.89710323     1.04600
O833        O  0.32601445  0.87845715  0.95290507    -0.80200
O834        O  0.27476143  0.85405304  0.92114321    -0.67800
Ni835      Ni  0.37026763  0.91441296  0.83040431     1.34900
C836        C  0.26876092  0.84220002  0.89687582     0.83300
O837        O  0.39202807  0.89402137  0.89090954    -0.80800
O838        O  0.40177628  0.90684063  0.84530804    -0.91000
C839        C  0.35516115  0.89046313  0.95512867     0.82900
O840        O  0.38905448  0.95425676  0.84628181    -0.69200
O841        O  0.27458615  0.90817104  0.92135276    -0.88500
C842        C  0.39628344  0.96398787  0.87114667     0.83700
C843        C  0.40799565  0.89881005  0.86883699     1.05300
H844        H  0.33592111  0.93321834  0.90538510     0.37100
O845        O  0.32711152  0.91121683  0.90372872    -1.11200
O846        O  0.28212201  0.85731995  0.87474398    -0.67800
Ni847      Ni  0.30983948  0.90046685  0.86677878     1.26300
O848        O  0.38794692  0.94613495  0.89242040    -0.68100
O849        O  0.27715255  0.90898115  0.87415133    -0.80400
C850        C  0.31306737  0.90621046  0.80841338     0.83100
O851        O  0.29550506  0.89072519  0.82854531    -0.67500
Ni852      Ni  0.30142118  0.89407539  0.93560032     1.27400
Ni853      Ni  0.35968321  0.90253514  0.89817685     1.26100
H854        H  0.33520142  0.87133808  0.85785490     0.37600
O855        O  0.43486561  0.83210208  0.18667647    -0.82300
O856        O  0.41991461  0.86226797  0.06326298    -0.67000
O857        O  0.40310475  0.83345957  0.13912756    -1.13600
C858        C  0.42057185  0.75475439  0.10394619     1.04600
O859        O  0.38789541  0.81541551  0.04783716    -0.80200
O860        O  0.36349853  0.76405479  0.07991212    -0.67800
Ni861      Ni  0.42408395  0.86019155  0.16953360     1.34900
C862        C  0.35162790  0.75864682  0.10422106     0.83300
O863        O  0.40543537  0.88275748  0.10866765    -0.80800
O864        O  0.41524429  0.89077823  0.15487977    -0.91000
C865        C  0.40049471  0.84457329  0.04528084     0.82900
O866        O  0.46407299  0.88029856  0.15360948    -0.69200
O867        O  0.41767179  0.76383519  0.07951401    -0.88500
C868        C  0.47421883  0.88613761  0.12874055     0.83700
C869        C  0.40849214  0.89775321  0.13107170     1.05300
H870        H  0.44282703  0.82474503  0.09503092     0.37100
O871        O  0.42082813  0.81637329  0.09670374    -1.11200
O872        O  0.36669413  0.77249997  0.12613532    -0.67800
Ni873      Ni  0.40993945  0.79959416  0.13380633     1.26300
O874        O  0.45672619  0.87676646  0.10730981    -0.68100
O875        O  0.41760895  0.76629992  0.12675595    -0.80400
C876        C  0.41635149  0.80395058  0.19194740     0.83100
O877        O  0.40022329  0.78592696  0.17236172    -0.67500
Ni878      Ni  0.40351402  0.79065460  0.06507570     1.27400
Ni879      Ni  0.41298022  0.84954146  0.10177374     1.26100
H880        H  0.38132488  0.82563126  0.14194322     0.37600
O881        O  0.15726714  0.57417146  0.18660192    -0.82300
O882        O  0.13004361  0.53876354  0.06253011    -0.67000
O883        O  0.15973681  0.54608481  0.13754872    -1.13600
C884        C  0.23732807  0.64452216  0.10549255     1.04600
O885        O  0.17685556  0.55398661  0.04665244    -0.80200
O886        O  0.22724287  0.57695295  0.07944840    -0.67800
Ni887      Ni  0.13273391  0.53517212  0.16862281     1.34900
C888        C  0.23382443  0.57167081  0.10384788     0.83300
O889        O  0.11032589  0.00071711  0.10597719    -0.80800
O890        O  0.10573990  0.99528643  0.15284840    -0.91000
C891        C  0.14763285  0.53789021  0.04403188     0.82900
O892        O  0.10728098  0.55049055  0.15503510    -0.69200
O893        O  0.23006794  0.63262618  0.08101716    -0.88500
C894        C  0.10292831  0.55914812  0.13126617     0.83700
C895        C  0.09738129  0.98508765  0.12797317     1.05300
H896        H  0.16747580  0.59681184  0.09508567     0.37100
O897        O  0.17609906  0.58341182  0.09663224    -1.11200
O898        O  0.22137074  0.57443501  0.12601279    -0.67800
Ni899      Ni  0.19222366  0.58794874  0.13387040     1.26300
O900        O  0.11580179  0.55750129  0.10894677    -0.68100
O901        O  0.22430198  0.62990821  0.12805718    -0.80400
C902        C  0.18589227  0.58702361  0.19191134     0.83100
O903        O  0.20497253  0.59089644  0.17263294    -0.67500
Ni904      Ni  0.20241292  0.59288995  0.06528544     1.27400
Ni905      Ni  0.14326099  0.54206223  0.10064024     1.26100
H906        H  0.16878047  0.53302289  0.13861747     0.37600
O907        O  0.07339347  0.90431673  0.81020164    -0.82300
O908        O  0.08311625  0.94914129  0.93424572    -0.67000
O909        O  0.10160105  0.93648189  0.85939928    -1.13600
C910        C  0.08205811  0.84019221  0.89815843     1.04600
O911        O  0.11452273  0.93377299  0.95081586    -0.80200
O912        O  0.13862240  0.90521605  0.92180139    -0.67800
Ni913      Ni  0.08094112  0.94177748  0.82808296     1.34900
C914        C  0.15157904  0.91247927  0.89796623     0.83300
O915        O  0.09925803  0.98392799  0.88815221    -0.80800
O916        O  0.08639225  0.98008843  0.84256926    -0.91000
C917        C  0.10189318  0.95026665  0.95282445     0.82900
O918        O  0.04045751  0.91945511  0.84294319    -0.69200
O919        O  0.08355165  0.85203683  0.92217824    -0.88500
C920        C  0.03018729  0.91795896  0.86746953     0.83700
C921        C  0.09371323  0.99452493  0.86587309     1.05300
H922        H  0.06022295  0.88859751  0.90351560     0.37100
O923        O  0.08231591  0.90193577  0.90246015    -1.11200
O924        O  0.13752969  0.91235760  0.87560688    -0.67800
Ni925      Ni  0.09458375  0.89583427  0.86640725     1.26300
O926        O  0.04756038  0.92767783  0.88901947    -0.68100
O927        O  0.08670330  0.85494448  0.87500635    -0.80400
C928        C  0.09099584  0.89300128  0.80800567     0.83100
O929        O  0.10586040  0.89137546  0.82896691    -0.67500
Ni930      Ni  0.09835089  0.89323242  0.93516785     1.27400
Ni931      Ni  0.09093890  0.94308106  0.89613893     1.26100
H932        H  0.12349937  0.95044286  0.85674994     0.37600
O933        O  0.08373732  0.65220408  0.81400469    -0.82300
O934        O  0.04769318  0.62075205  0.93856383    -0.67000
O935        O  0.05506270  0.65142267  0.86383353    -1.13600
C936        C  0.15426274  0.72767829  0.89704446     1.04600
O937        O  0.06262893  0.66749424  0.95421470    -0.80200
O938        O  0.09005126  0.72008092  0.92379432    -0.67800
Ni939      Ni  0.04500001  0.62564904  0.83208779     1.34900
C940        C  0.08238562  0.72591629  0.90009651     0.83300
O941        O  0.00981495  0.60125590  0.89471011    -0.80800
O942        O  0.00546317  0.59672927  0.84774887    -0.91000
C943        C  0.04643092  0.63831831  0.95688776     0.82900
O944        O  0.06197375  0.60121974  0.84458509    -0.69200
O945        O  0.14331194  0.71819528  0.92166380    -0.88500
C946        C  0.06948406  0.59528174  0.86827470     0.83700
C947        C  0.49488337  0.58801759  0.87252612     1.05300
H948        H  0.10591561  0.65825999  0.90511738     0.37100
O949        O  0.09247626  0.66690558  0.90453893    -1.11200
O950        O  0.08189554  0.71201249  0.87773240    -0.67800
Ni951      Ni  0.09667853  0.68442914  0.86810717     1.26300
O952        O  0.06657979  0.60666994  0.89113160    -0.68100
O953        O  0.13848946  0.71699371  0.87448556    -0.80400
C954        C  0.09575416  0.68095636  0.80988176     0.83100
O955        O  0.09923627  0.69884792  0.83003843    -0.67500
Ni956      Ni  0.10265611  0.69198866  0.93672077     1.27400
Ni957      Ni  0.05109760  0.63413585  0.90036678     1.26100
H958        H  0.04156709  0.66000060  0.86309095     0.37600
O959        O  0.41446374  0.56278213  0.19169435    -0.82300
O960        O  0.45643735  0.57275982  0.06596618    -0.67000
O961        O  0.44486074  0.59058817  0.14135206    -1.13600
C962        C  0.34708586  0.56944092  0.10510992     1.04600
O963        O  0.43989623  0.60336056  0.04993495    -0.80200
O964        O  0.41096550  0.62643469  0.08009177    -0.67800
Ni965      Ni  0.45128996  0.57031524  0.17232663     1.34900
C966        C  0.41888734  0.63947227  0.10381802     0.83300
O967        O  0.49209548  0.58936392  0.11116704    -0.80800
O968        O  0.48910294  0.57587086  0.15654111    -0.91000
C969        C  0.45718137  0.59159281  0.04763922     0.82900
O970        O  0.42858679  0.52996504  0.15763182    -0.69200
O971        O  0.35831790  0.57075843  0.08075840    -0.88500
C972        C  0.42694600  0.51961229  0.13313576     0.83700
C973        C  0.00310892  0.58367312  0.13301751     1.05300
H974        H  0.39622711  0.54865908  0.09812999     0.37100
O975        O  0.40929754  0.57075308  0.09900858    -1.11200
O976        O  0.41960683  0.62563564  0.12603242    -0.67800
Ni977      Ni  0.40381831  0.58290316  0.13534446     1.26300
O978        O  0.43635649  0.53689929  0.11144499    -0.68100
O979        O  0.36252922  0.57449655  0.12784943    -0.80400
C980        C  0.40252218  0.57981544  0.19390423     0.83100
O981        O  0.40006557  0.59414109  0.17291774    -0.67500
Ni982      Ni  0.39944512  0.58638089  0.06666896     1.27400
Ni983      Ni  0.45084577  0.58015295  0.10429961     1.26100
H984        H  0.45860389  0.61242187  0.14384168     0.37600
C985        C  0.51399606  0.59610536  0.99186916    -0.14800
C986        C  0.02384086  0.62546090  0.98026034     0.07400
C987        C  0.01153311  0.64302940  0.99096861    -0.14800
C988        C  0.98977142  0.63161608  0.01246828    -0.14800
C989        C  0.48006534  0.60251510  0.02443324     0.07400
C990        C  0.49263619  0.58491598  0.01412063    -0.14800
H991        H  0.52311106  0.58206594  0.98401388     0.11400
H992        H  0.01840198  0.66560042  0.98237632     0.11400
H993        H  0.98079588  0.64590354  0.02000915     0.11400
H994        H  0.48563376  0.56242562  0.02295996     0.11400
C995        C  0.07908909  0.79513754  0.87250456    -0.14800
C996        C  0.07614721  0.80810582  0.89753661     0.07400
C997        C  0.07067082  0.79128787  0.92266688    -0.14800
C998        C  0.07055991  0.76341969  0.92313211    -0.14800
C999        C  0.07576489  0.75156047  0.89847016     0.07400
C1000       C  0.07881913  0.76708953  0.87296032    -0.14800
H1001       H  0.08322077  0.80739441  0.85276487     0.11400
H1002       H  0.06793463  0.80033664  0.94231549     0.11400
H1003       H  0.06782075  0.75187009  0.94308887     0.11400
H1004       H  0.08294085  0.75858568  0.85360096     0.11400
C1005       C  0.08895614  0.53472591  0.89303145    -0.14800
C1006       C  0.09363694  0.52404007  0.86732061     0.07400
C1007       C  0.09413443  0.53961154  0.84256296    -0.14800
C1008       C  0.08805117  0.56388998  0.84324301    -0.14800
C1009       C  0.08105433  0.57314134  0.86868158     0.07400
C1010       C  0.08265534  0.55900302  0.89370333    -0.14800
H1011       H  0.08833128  0.52314957  0.91249205     0.11400
H1012       H  0.09774866  0.03206264  0.82239422     0.11400
H1013       H  0.08757422  0.57457516  0.82356244     0.11400
H1014       H  0.07751168  0.56561770  0.91363259     0.11400
C1015       C  0.10379397  0.00260610  0.01153901    -0.14800
C1016       C  0.13479205  0.51592376  0.02031059     0.07400
C1017       C  0.15415008  0.50749809  0.00654694    -0.14800
C1018       C  0.14302485  0.98624476  0.98484479    -0.14800
C1019       C  0.11232996  0.97308649  0.97576203     0.07400
C1020       C  0.09273170  0.98162414  0.98908009    -0.14800
H1021       H  0.08827259  0.00851645  0.02189185     0.11400
H1022       H  0.17801365  0.51699136  0.01285404     0.11400
H1023       H  0.15871133  0.98024329  0.97493313     0.11400
H1024       H  0.06887987  0.97162908  0.98255392     0.11400
C1025       C  0.06510872  0.56922987  0.10520169    -0.14800
C1026       C  0.08112858  0.57086174  0.13000699     0.07400
C1027       C  0.07411861  0.58124664  0.15468538    -0.14800
C1028       C  0.05004976  0.58759781  0.15513626    -0.14800
C1029       C  0.03256253  0.58386574  0.13088751     0.07400
C1030       C  0.04097619  0.57572637  0.10563614    -0.14800
H1031       H  0.07002160  0.56125227  0.08591511     0.11400
H1032       H  0.08643952  0.58324522  0.17402663     0.11400
H1033       H  0.54420498  0.59408203  0.17480079     0.11400
H1034       H  0.02763643  0.57240793  0.08668735     0.11400
C1035       C  0.27557787  0.56921167  0.13126083    -0.14800
C1036       C  0.25879700  0.56406019  0.10618389     0.07400
C1037       C  0.26906528  0.55604033  0.08201008    -0.14800
C1038       C  0.29677372  0.55575523  0.08222577    -0.14800
C1039       C  0.31495123  0.56345954  0.10663868     0.07400
C1040       C  0.30343888  0.56894001  0.13148142    -0.14800
H1041       H  0.26830268  0.57549064  0.15023116     0.11400
H1042       H  0.25650835  0.55158323  0.06241688     0.11400
H1043       H  0.30468771  0.55102210  0.06280128     0.11400
H1044       H  0.31681792  0.57486324  0.15068481     0.11400
C1045       C  0.02057046  0.92321100  0.10063176    -0.14800
C1046       C  0.50793293  0.90596939  0.12526714     0.07400
C1047       C  0.02744346  0.91077608  0.14832748    -0.14800
C1048       C  0.05787066  0.93482030  0.14811469    -0.14800
C1049       C  0.06948651  0.95451717  0.12479899     0.07400
C1050       C  0.05122768  0.94736452  0.10038670    -0.14800
H1051       H  0.50618511  0.91970388  0.08240185     0.11400
H1052       H  0.01861584  0.89725446  0.16735179     0.11400
H1053       H  0.07156958  0.93934982  0.16701027     0.11400
H1054       H  0.05966351  0.96202946  0.08197784     0.11400
C1055       C  0.30862094  0.71607289  0.13176482    -0.14800
C1056       C  0.31925380  0.73339669  0.10683900     0.07400
C1057       C  0.30036625  0.72327188  0.08287906    -0.14800
C1058       C  0.27273563  0.69527037  0.08309853    -0.14800
C1059       C  0.26322589  0.67666081  0.10730088     0.07400
C1060       C  0.28079860  0.68789532  0.13199310    -0.14800
H1061       H  0.32278463  0.72319309  0.15051167     0.11400
H1062       H  0.30775834  0.73623414  0.06342978     0.11400
H1063       H  0.25951740  0.68752371  0.06383655     0.11400
H1064       H  0.27408624  0.67406133  0.15096046     0.11400
C1065       C  0.40066920  0.93763100  0.15420535    -0.14800
C1066       C  0.40596019  0.92584997  0.12959026     0.07400
C1067       C  0.41318014  0.94341920  0.10476277    -0.14800
C1068       C  0.41796660  0.97343475  0.10527278    -0.14800
C1069       C  0.41535365  0.98617467  0.13057413     0.07400
C1070       C  0.40514322  0.96734103  0.15466797    -0.14800
H1071       H  0.39463608  0.92445880  0.17356112     0.11400
H1072       H  0.41733244  0.93486028  0.08544912     0.11400
H1073       H  0.42555190  0.48719268  0.08626383     0.11400
H1074       H  0.40236358  0.97614204  0.17444620     0.11400
C1075       C  0.42033842  0.71104625  0.13047133    -0.14800
C1076       C  0.42610643  0.72832245  0.10556821     0.07400
C1077       C  0.43390108  0.71804743  0.08125615    -0.14800
C1078       C  0.43361145  0.69007647  0.08124523    -0.14800
C1079       C  0.42568892  0.67173899  0.10557476     0.07400
C1080       C  0.42017858  0.68302662  0.13047876    -0.14800
H1081       H  0.41421182  0.71825807  0.14956174     0.11400
H1082       H  0.43886608  0.73093873  0.06180412     0.11400
H1083       H  0.43825862  0.68213191  0.06180085     0.11400
H1084       H  0.41380242  0.66930401  0.14951362     0.11400
C1085       C  0.22603519  0.79864239  0.86992036    -0.14800
C1086       C  0.24342130  0.80976317  0.89471430     0.07400
C1087       C  0.23333318  0.79122598  0.91896138    -0.14800
C1088       C  0.20531710  0.76353736  0.91912326    -0.14800
C1089       C  0.18657319  0.75358827  0.89502571     0.07400
C1090       C  0.19784482  0.77079978  0.87007911    -0.14800
H1091       H  0.23311901  0.81242370  0.85092310     0.11400
H1092       H  0.24632990  0.79892829  0.93834603     0.11400
H1093       H  0.19765483  0.75070397  0.93861325     0.11400
H1094       H  0.18405138  0.76375935  0.85111321     0.11400
C1095       C  0.43485199  0.00969593  0.89886724    -0.14800
C1096       C  0.41656950  0.99759975  0.87473142     0.07400
C1097       C  0.42078002  0.51751627  0.85213160    -0.14800
C1098       C  0.44464334  0.54804400  0.85247863    -0.14800
C1099       C  0.46483328  0.55936646  0.87545543     0.07400
C1100       C  0.45878247  0.54041006  0.89925734    -0.14800
H1101       H  0.43218352  0.99493064  0.91658616     0.11400
H1102       H  0.40666469  0.50905808  0.83342300     0.11400
H1103       H  0.44848525  0.56221344  0.83400719     0.11400
H1104       H  0.97401948  0.54851586  0.91728854     0.11400
C1105       C  0.20123927  0.92453832  0.92102884    -0.14800
C1106       C  0.18391766  0.91921502  0.89630700     0.07400
C1107       C  0.19608746  0.91580906  0.87094074    -0.14800
C1108       C  0.22378813  0.91522238  0.87076630    -0.14800
C1109       C  0.23981088  0.91812181  0.89595187     0.07400
C1110       C  0.22881694  0.92401757  0.92085310    -0.14800
H1111       H  0.19269302  0.92756244  0.94087567     0.11400
H1112       H  0.18324248  0.91158149  0.85154461     0.11400
H1113       H  0.23168000  0.91075943  0.85119646     0.11400
H1114       H  0.24075510  0.92680047  0.94057797     0.11400
C1115       C  0.44715200  0.88846955  0.84739305    -0.14800
C1116       C  0.43638373  0.89697224  0.87081198     0.07400
C1117       C  0.45502175  0.90778002  0.89489632    -0.14800
C1118       C  0.48502813  0.91253379  0.89466771    -0.14800
C1119       C  0.99672227  0.90632164  0.87039875     0.07400
C1120       C  0.47693983  0.89281599  0.84727843    -0.14800
H1121       H  0.43303510  0.87979502  0.82870202     0.11400
H1122       H  0.44722984  0.91467321  0.91316303     0.11400
H1123       H  0.99966832  0.92296153  0.91278725     0.11400
H1124       H  0.48508073  0.88731659  0.82839925     0.11400
C1125       C  0.34846505  0.85126462  0.99118257    -0.14800
C1126       C  0.36766546  0.88006202  0.97858917     0.07400
C1127       C  0.39826516  0.89768529  0.98833238    -0.14800
C1128       C  0.40914021  0.88665531  0.01035615    -0.14800
C1129       C  0.38990480  0.85740433  0.02232309     0.07400
C1130       C  0.35949968  0.83998530  0.01242881    -0.14800
H1131       H  0.32484682  0.83699802  0.98420820     0.11400
H1132       H  0.41362005  0.91999636  0.97911101     0.11400
H1133       H  0.43266267  0.90067371  0.01766140     0.11400
H1134       H  0.34396617  0.81757960  0.02140369     0.11400
C1135       C  0.40364280  0.61001561  0.26577984    -0.14800
C1136       C  0.38868131  0.58211429  0.28079069     0.07400
C1137       C  0.37182989  0.55449532  0.26597359    -0.14800
C1138       C  0.37320659  0.55428362  0.23678682    -0.14800
C1139       C  0.39122895  0.58171976  0.22186024     0.07400
C1140       C  0.40491620  0.60981183  0.23633197    -0.14800
H1141       H  0.41726188  0.63152421  0.27678592     0.11400
H1142       H  0.36029970  0.53270173  0.27711944     0.11400
H1143       H  0.36267642  0.53236346  0.22606593     0.11400
H1144       H  0.41939991  0.63118418  0.22523726     0.11400
C1145       C  0.12026601  0.67894883  0.73694112    -0.14800
C1146       C  0.10455118  0.69109281  0.72195822     0.07400
C1147       C  0.09291084  0.70732892  0.73659026    -0.14800
C1148       C  0.09363031  0.70790404  0.76612789    -0.14800
C1149       C  0.10598646  0.69224292  0.78103998     0.07400
C1150       C  0.12099956  0.67954097  0.76615448    -0.14800
H1151       H  0.12935581  0.66627604  0.72613286     0.11400
H1152       H  0.08033346  0.71652361  0.72547699     0.11400
H1153       H  0.08154021  0.71747576  0.77717574     0.11400
H1154       H  0.13057789  0.66725067  0.77717972     0.11400
C1155       C  0.98976040  0.58694408  0.48901970    -0.14800
C1156       C  0.47760637  0.60500706  0.47860707     0.07400
C1157       C  0.48754369  0.63399951  0.49057241    -0.14800
C1158       C  0.50943133  0.64496771  0.51204606    -0.14800
C1159       C  0.02152873  0.62699618  0.52265242     0.07400
C1160       C  0.01122601  0.59767370  0.51119109    -0.14800
H1161       H  0.98244173  0.56448067  0.48023225     0.11400
H1162       H  0.47875135  0.64855720  0.48299694     0.11400
H1163       H  0.51661364  0.66749378  0.52064437     0.11400
H1164       H  0.02010832  0.58331463  0.51907366     0.11400
C1165       C  0.06443280  0.86329648  0.73636946    -0.14800
C1166       C  0.09162678  0.88117318  0.72111302     0.07400
C1167       C  0.11998338  0.89567538  0.73548598    -0.14800
C1168       C  0.12053635  0.89585019  0.76499035    -0.14800
C1169       C  0.09273730  0.88146863  0.78011565     0.07400
C1170       C  0.06499253  0.86339837  0.76561163    -0.14800
H1171       H  0.04231743  0.85200133  0.72572793     0.11400
H1172       H  0.14120744  0.90990865  0.72413464     0.11400
H1173       H  0.14215983  0.91027466  0.77573625     0.11400
H1174       H  0.04328396  0.85224190  0.77683756     0.11400
C1175       C  0.07713067  0.79402354  0.63025918    -0.14800
C1176       C  0.07355160  0.80675645  0.60507681     0.07400
C1177       C  0.06698917  0.78952756  0.58030622    -0.14800
C1178       C  0.06668823  0.76159018  0.58019904    -0.14800
C1179       C  0.07274219  0.75005983  0.60487872     0.07400
C1180       C  0.07663889  0.76585786  0.63016774    -0.14800
H1181       H  0.08202523  0.80658075  0.64975489     0.11400
H1182       H  0.06364218  0.79834539  0.56059699     0.11400
H1183       H  0.06323518  0.74975673  0.56044495     0.11400
H1184       H  0.08140124  0.75754984  0.64952585     0.11400
C1185       C  0.09242296  0.53724266  0.65704858    -0.14800
C1186       C  0.09119148  0.52218381  0.63200503     0.07400
C1187       C  0.08706822  0.53405106  0.60652514    -0.14800
C1188       C  0.08184249  0.55905690  0.60642575    -0.14800
C1189       C  0.08093350  0.57271293  0.63179610     0.07400
C1190       C  0.08755292  0.56224535  0.65693876    -0.14800
H1191       H  0.09593077  0.52890779  0.67697534     0.11400
H1192       H  0.08583413  0.02272648  0.58679617     0.11400
H1193       H  0.07694226  0.56660617  0.58670263     0.11400
H1194       H  0.08748332  0.57238821  0.67688811     0.11400
C1195       C  0.17935488  0.61074936  0.26421550    -0.14800
C1196       C  0.19467661  0.59880757  0.28011454     0.07400
C1197       C  0.21334479  0.58948977  0.26622522    -0.14800
C1198       C  0.21374513  0.58894929  0.23667394    -0.14800
C1199       C  0.19551170  0.59776319  0.22097648     0.07400
C1200       C  0.17978185  0.61024896  0.23503980    -0.14800
H1201       H  0.16484757  0.61811394  0.27438496     0.11400
H1202       H  0.22506613  0.57983777  0.27804789     0.11400
H1203       H  0.22570788  0.57882983  0.22630274     0.11400
H1204       H  0.16552558  0.61715604  0.22345110     0.11400
C1205       C  0.15371996  0.50959719  0.49534640    -0.14800
C1206       C  0.13360734  0.51660408  0.48055103     0.07400
C1207       C  0.10228781  0.00152990  0.48827664    -0.14800
C1208       C  0.09148309  0.98004462  0.51046437    -0.14800
C1209       C  0.11165041  0.97258812  0.52456113     0.07400
C1210       C  0.14278947  0.98750862  0.51666402    -0.14800
H1211       H  0.17794035  0.52060387  0.48993805     0.11400
H1212       H  0.08623877  0.00645756  0.47729399     0.11400
H1213       H  0.06733342  0.96876798  0.51617376     0.11400
H1214       H  0.15887873  0.98238741  0.52733901     0.11400
C1215       C  0.07003307  0.58283966  0.34605452    -0.14800
C1216       C  0.07864378  0.57392381  0.37100281     0.07400
C1217       C  0.06421749  0.57392043  0.39620487    -0.14800
C1218       C  0.04000822  0.58036910  0.39598610    -0.14800
C1219       C  0.02985497  0.58679852  0.37055747     0.07400
C1220       C  0.04590880  0.58910343  0.34582229    -0.14800
H1221       H  0.08105148  0.58367715  0.32632395     0.11400
H1222       H  0.07044476  0.56730095  0.41576859     0.11400
H1223       H  0.52795769  0.57831293  0.41539231     0.11400
H1224       H  0.03885453  0.59430443  0.32596456     0.11400
C1225       C  0.27213263  0.57081905  0.37199634    -0.14800
C1226       C  0.25691186  0.56814343  0.39744907     0.07400
C1227       C  0.26878032  0.56287662  0.42230069    -0.14800
C1228       C  0.29643719  0.56260686  0.42210261    -0.14800
C1229       C  0.31302780  0.56770565  0.39704775     0.07400
C1230       C  0.30004063  0.57069526  0.37180367    -0.14800
H1231       H  0.26354098  0.57495448  0.35250596     0.11400
H1232       H  0.25745025  0.56042928  0.44222078     0.11400
H1233       H  0.30553393  0.55992282  0.44192372     0.11400
H1234       H  0.31218281  0.57455383  0.35213108     0.11400
C1235       C  0.44128769  0.80815016  0.26637426    -0.14800
C1236       C  0.41296422  0.79499791  0.28048145     0.07400
C1237       C  0.38556606  0.77792562  0.26503144    -0.14800
C1238       C  0.38650861  0.77725935  0.23551346    -0.14800
C1239       C  0.41486013  0.79366917  0.22137961     0.07400
C1240       C  0.44222946  0.80743208  0.23719268    -0.14800
H1241       H  0.46270060  0.82149492  0.27779704     0.11400
H1242       H  0.36342602  0.76795685  0.27544381     0.11400
H1243       H  0.36507291  0.76681827  0.22379705     0.11400
H1244       H  0.46438002  0.82023460  0.22684554     0.11400
C1245       C  0.41353172  0.94556721  0.39942461    -0.14800
C1246       C  0.40215008  0.92711671  0.37534161     0.07400
C1247       C  0.39364520  0.93836032  0.35199564    -0.14800
C1248       C  0.39862483  0.96826191  0.35180469    -0.14800
C1249       C  0.41256840  0.98780822  0.37485940     0.07400
C1250       C  0.41881005  0.97578463  0.39915620    -0.14800
H1251       H  0.42047204  0.93747479  0.41766109     0.11400
H1252       H  0.38458335  0.92453689  0.33327174     0.11400
H1253       H  0.39321221  0.47669238  0.33288886     0.11400
H1254       H  0.42960181  0.99028157  0.41721156     0.11400
C1255       C  0.43219651  0.69262512  0.42069821    -0.14800
C1256       C  0.42601796  0.67534917  0.39606287     0.07400
C1257       C  0.42352540  0.68817603  0.37052750    -0.14800
C1258       C  0.42394508  0.71632878  0.37020681    -0.14800
C1259       C  0.42694991  0.73200642  0.39542026     0.07400
C1260       C  0.43278382  0.72065066  0.42036528    -0.14800
H1261       H  0.43484655  0.68365415  0.44061738     0.11400
H1262       H  0.41896734  0.67544639  0.35116434     0.11400
H1263       H  0.41978458  0.72466330  0.35057863     0.11400
H1264       H  0.43592939  0.73245892  0.44008155     0.11400
C1265       C  0.01762446  0.92389127  0.39891003    -0.14800
C1266       C  0.50365229  0.90854796  0.37384379     0.07400
C1267       C  0.02189867  0.91570202  0.34957299    -0.14800
C1268       C  0.05232797  0.93978577  0.34952892    -0.14800
C1269       C  0.06539616  0.95730715  0.37378605     0.07400
C1270       C  0.04832247  0.94809541  0.39888887    -0.14800
H1271       H  0.50429123  0.91867320  0.41801904     0.11400
H1272       H  0.01213632  0.90386700  0.33001891     0.11400
H1273       H  0.06495126  0.94591917  0.32994752     0.11400
H1274       H  0.05780534  0.96106686  0.41798925     0.11400
C1275       C  0.30436946  0.71885841  0.36889560    -0.14800
C1276       C  0.31638403  0.73491830  0.39413452     0.07400
C1277       C  0.29811921  0.72448462  0.41839266    -0.14800
C1278       C  0.26997504  0.69707568  0.41821531    -0.14800
C1279       C  0.25928127  0.67924981  0.39377037     0.07400
C1280       C  0.27600423  0.69116565  0.36872135    -0.14800
H1281       H  0.31782936  0.72646033  0.34979950     0.11400
H1282       H  0.30639296  0.73662408  0.43805931     0.11400
H1283       H  0.25746687  0.68900561  0.43777374     0.11400
H1284       H  0.26824738  0.67815346  0.34944803     0.11400
C1285       C  0.28619632  0.87554331  0.73589036    -0.14800
C1286       C  0.30202940  0.90310719  0.72044265     0.07400
C1287       C  0.31427772  0.93122811  0.73456867    -0.14800
C1288       C  0.31400874  0.93196192  0.76377972    -0.14800
C1289       C  0.30160240  0.90458123  0.77949532     0.07400
C1290       C  0.28597799  0.87628070  0.76539507    -0.14800
H1291       H  0.27699137  0.85358665  0.72542006     0.11400
H1292       H  0.32667449  0.95274258  0.72309249     0.11400
H1293       H  0.32627345  0.95405104  0.77415747     0.11400
H1294       H  0.27669199  0.85487942  0.77706445     0.11400
C1295       C  0.22217487  0.79882985  0.63250773    -0.14800
C1296       C  0.24030684  0.80827972  0.60808913     0.07400
C1297       C  0.23129346  0.78829676  0.58512409    -0.14800
C1298       C  0.20342377  0.76056839  0.58558778    -0.14800
C1299       C  0.18383534  0.75228536  0.60897690     0.07400
C1300       C  0.19407098  0.77102623  0.63293337    -0.14800
H1301       H  0.22855848  0.81391840  0.65047227     0.11400
H1302       H  0.24503691  0.79487830  0.56617736     0.11400
H1303       H  0.19646501  0.74640299  0.56696857     0.11400
H1304       H  0.17950074  0.76525715  0.65127889     0.11400
C1305       C  0.42265906  0.51203010  0.65057555    -0.14800
C1306       C  0.41661996  0.99361237  0.62667789     0.07400
C1307       C  0.43313062  0.00721768  0.60191190    -0.14800
C1308       C  0.45699346  0.53809407  0.60190180    -0.14800
C1309       C  0.46459328  0.55558471  0.62664846     0.07400
C1310       C  0.44630116  0.54258171  0.65055462    -0.14800
H1311       H  0.41000216  0.50241566  0.66985692     0.11400
H1312       H  0.42895638  0.99358249  0.58318688     0.11400
H1313       H  0.97083360  0.54749953  0.58317424     0.11400
H1314       H  0.45136718  0.55554250  0.66983375     0.11400
C1315       C  0.22159704  0.91310865  0.63104377    -0.14800
C1316       C  0.23794505  0.91730063  0.60594499     0.07400
C1317       C  0.22734088  0.92459856  0.58130410    -0.14800
C1318       C  0.19972136  0.92501952  0.58115324    -0.14800
C1319       C  0.18202111  0.91828993  0.60565764     0.07400
C1320       C  0.19385563  0.91365602  0.63090429    -0.14800
H1321       H  0.22918338  0.90752595  0.65040290     0.11400
H1322       H  0.23956808  0.92844968  0.56168045     0.11400
H1323       H  0.19140579  0.92903692  0.56144008     0.11400
H1324       H  0.18065567  0.90831497  0.65011269     0.11400
C1325       C  0.45144305  0.90261485  0.60177039    -0.14800
C1326       C  0.43261891  0.89078665  0.62564459     0.07400
C1327       C  0.44352855  0.88175078  0.64889494    -0.14800
C1328       C  0.47368429  0.88718181  0.64940657    -0.14800
C1329       C  0.99373453  0.90213481  0.62679605     0.07400
C1330       C  0.48186400  0.90835600  0.60237124    -0.14800
H1331       H  0.44356768  0.90981319  0.58355437     0.11400
H1332       H  0.42934184  0.87220637  0.66741270     0.11400
H1333       H  0.48187013  0.88148751  0.66833816     0.11400
H1334       H  0.99665152  0.91967377  0.58453445     0.11400
C1335       C  0.34526070  0.84736483  0.51194755    -0.14800
C1336       C  0.36254144  0.87778048  0.52156232     0.07400
C1337       C  0.39171388  0.89717338  0.50967426    -0.14800
C1338       C  0.40311708  0.88638788  0.48831712    -0.14800
C1339       C  0.38595739  0.85572858  0.47909315     0.07400
C1340       C  0.35694235  0.83639749  0.49127390    -0.14800
H1341       H  0.32283168  0.83177153  0.52083094     0.11400
H1342       H  0.40552048  0.92073053  0.51668808     0.11400
H1343       H  0.42545779  0.90188654  0.47925288     0.11400
H1344       H  0.34295011  0.81275426  0.48453032     0.11400
O1345       O  0.82101902  0.37556004  0.54763131    -0.82300
O1346       O  0.79496190  0.38847206  0.67192537    -0.67000
O1347       O  0.82392491  0.40902847  0.59627783    -1.13600
C1348       C  0.90448253  0.39309101  0.62828748     1.04600
O1349       O  0.84208645  0.41964747  0.68760513    -0.80200
O1350       O  0.89020346  0.44861644  0.65370867    -0.67800
Ni1351     Ni  0.79721652  0.39182312  0.56505288     1.34900
C1352       C  0.89570265  0.45993455  0.62913837     0.83300
O1353       O  0.77549270  0.40742721  0.62702774    -0.80800
O1354       O  0.77146837  0.40673157  0.57981958    -0.91000
C1355       C  0.81326309  0.40331718  0.69178942     0.82900
O1356       O  0.77038472  0.35200137  0.58024607    -0.69200
O1357       O  0.89780739  0.39827404  0.65270178    -0.88500
C1358       C  0.76543817  0.34039668  0.60471456     0.83700
C1359       C  0.76352835  0.41050463  0.60429625     1.05300
H1360       H  0.83245448  0.36771290  0.64016136     0.37100
O1361       O  0.84106514  0.38966804  0.63804330    -1.11200
O1362       O  0.88480288  0.44365413  0.60716956    -0.67800
Ni1363     Ni  0.85658921  0.40032574  0.60060615     1.26300
O1364       O  0.77978018  0.35551092  0.62633474    -0.68100
O1365       O  0.88944673  0.39184362  0.60623741    -0.80400
C1366       C  0.85014699  0.38835786  0.54446305     0.83100
O1367       O  0.86833670  0.40800397  0.56202390    -0.67500
Ni1368     Ni  0.86859313  0.40810290  0.66863544     1.27400
Ni1369     Ni  0.80807407  0.39825687  0.63350990     1.26100
H1370       H  0.83267615  0.43103289  0.59446145     0.37600
O1371       O  0.88490390  0.31465531  0.45351280    -0.82300
O1372       O  0.89781942  0.28837673  0.32900802    -0.67000
O1373       O  0.91818213  0.31741355  0.40465219    -1.13600
C1374       C  0.90399269  0.39878674  0.37270459     1.04600
O1375       O  0.92841127  0.33533968  0.31254350    -0.80200
O1376       O  0.95857544  0.38229109  0.34699244    -0.67800
Ni1377     Ni  0.90099303  0.29086198  0.43599855     1.34900
C1378       C  0.96984754  0.38802285  0.37154791     0.83300
O1379       O  0.91688467  0.26924970  0.37401526    -0.80800
O1380       O  0.91565771  0.26503139  0.42120113    -0.91000
C1381       C  0.91258101  0.30646621  0.30891432     0.82900
O1382       O  0.86101216  0.26454795  0.42098238    -0.69200
O1383       O  0.90953373  0.39221787  0.34841594    -0.88500
C1384       C  0.84911218  0.25944344  0.39665233     0.83700
C1385       C  0.91986866  0.25733482  0.39680583     1.05300
H1386       H  0.87702183  0.32611738  0.36059929     0.37100
O1387       O  0.89900471  0.33460778  0.36276158    -1.11200
O1388       O  0.95332822  0.37800751  0.39358447    -0.67800
Ni1389     Ni  0.90971579  0.35015670  0.40023898     1.26300
O1390       O  0.86435067  0.27321336  0.37477290    -0.68100
O1391       O  0.90161014  0.38318459  0.39464164    -0.80400
C1392       C  0.89727336  0.34368309  0.45637427     0.83100
O1393       O  0.91714034  0.36185914  0.43884486    -0.73500
Ni1394     Ni  0.91797317  0.36222989  0.33219372     1.27400
Ni1395     Ni  0.90743839  0.30155346  0.36743816     1.26100
H1396       H  0.94021902  0.32604644  0.40642930     0.37600
O1397       O  0.67484130  0.05581842  0.45412761    -0.82300
O1398       O  0.70336551  0.09261161  0.32904765    -0.67000
O1399       O  0.67277395  0.08491488  0.40401973    -1.13600
C1400       C  0.59386041  0.48774997  0.37140201     1.04600
O1401       O  0.65640933  0.07880749  0.31481901    -0.80200
O1402       O  0.60594275  0.05556061  0.34561777    -0.67800
Ni1403     Ni  0.69860100  0.09549549  0.43594329     1.34900
C1404       C  0.60050666  0.06225053  0.36967939     0.83300
O1405       O  0.72228650  0.13146719  0.37328650    -0.80800
O1406       O  0.72436364  0.13590468  0.42039725    -0.91000
C1407       C  0.68477561  0.08965140  0.30946876     0.82900
O1408       O  0.72618614  0.08276628  0.42267809    -0.69200
O1409       O  0.60199377  0.49933273  0.34681525    -0.88500
C1410       C  0.73161641  0.07519627  0.39896057     0.83700
C1411       C  0.73336192  0.14703019  0.39575913     1.05300
H1412       H  0.66538941  0.03487846  0.36171301     0.37100
O1413       O  0.65674941  0.04825367  0.36310081    -1.11200
O1414       O  0.61224302  0.05851000  0.39207257    -0.67800
Ni1415     Ni  0.64026541  0.04334384  0.39988731     1.26300
O1416       O  0.71760026  0.07508099  0.37658940    -0.68100
O1417       O  0.60746946  0.50195512  0.39381139    -0.80400
C1418       C  0.64572396  0.03873059  0.45668521     0.83100
O1419       O  0.62755052  0.03901936  0.43817494    -0.67500
Ni1420     Ni  0.63027661  0.03934647  0.33182329     1.27400
Ni1421     Ni  0.68969955  0.08972938  0.36729754     1.26100
H1422       H  0.66381721  0.09805433  0.40472899     0.37600
O1423       O  0.61342992  0.43265826  0.54974322    -0.82300
O1424       O  0.60411495  0.39065935  0.67214704    -0.67000
O1425       O  0.58042835  0.40068430  0.59812982    -1.13600
C1426       C  0.59040454  0.49230299  0.63314725     1.04600
O1427       O  0.57049512  0.40214422  0.69006112    -0.80200
O1428       O  0.53704267  0.41544759  0.65529755    -0.67800
Ni1429     Ni  0.59651670  0.39188397  0.56588396     1.34900
C1430       C  0.52732637  0.41487932  0.63058674     0.83300
O1431       O  0.58530648  0.35405546  0.62661108    -0.80800
O1432       O  0.58093596  0.35056403  0.57951954    -0.91000
C1433       C  0.58896452  0.39185788  0.69284800     0.82900
O1434       O  0.63651768  0.40323490  0.57987170    -0.69200
O1435       O  0.58151242  0.47691752  0.65604880    -0.88500
C1436       C  0.64962956  0.41131223  0.60363449     0.83700
C1437       C  0.57985921  0.33895447  0.60377099     1.05300
H1438       H  0.62070445  0.44921498  0.64417814     0.37100
O1439       O  0.59902959  0.43506027  0.64097322    -1.11200
O1440       O  0.54534151  0.42629597  0.60966546    -0.67800
Ni1441     Ni  0.58894188  0.44175273  0.60379326     1.26300
O1442       O  0.63572533  0.41189718  0.62565431    -0.68100
O1443       O  0.59719952  0.48254089  0.61126955    -0.80400
C1444       C  0.60101778  0.44937468  0.54737294     0.83100
O1445       O  0.58184001  0.44793120  0.56542409    -0.67500
Ni1446     Ni  0.57692094  0.43909866  0.67133966     1.27400
Ni1447     Ni  0.59268609  0.39476185  0.63450629     1.26100
H1448       H  0.55834026  0.38728697  0.59701712     0.37600
O1449       O  0.56062616  0.16831710  0.54874781    -0.82300
O1450       O  0.59630777  0.19673974  0.67297632    -0.67000
O1451       O  0.59018327  0.16609457  0.59850296    -1.13600
C1452       C  0.99423372  0.08469834  0.62924584     1.04600
O1453       O  0.58154494  0.15032311  0.68996674    -0.80200
O1454       O  0.56466022  0.10187433  0.65711909    -0.67800
Ni1455     Ni  0.60053883  0.19198155  0.56654429     1.34900
C1456       C  0.56968094  0.09500722  0.63294238     0.83300
O1457       O  0.63557765  0.21593489  0.62900846    -0.80800
O1458       O  0.64103590  0.21743169  0.58194657    -0.91000
C1459       C  0.59342811  0.17912828  0.69340717     0.82900
O1460       O  0.58812562  0.21990515  0.57970849    -0.69200
O1461       O  0.50606810  0.09193824  0.65375479    -0.88500
C1462       C  0.57956507  0.22464553  0.60324043     0.83700
C1463       C  0.65161861  0.22665744  0.60665339     1.05300
H1464       H  0.53888348  0.15727844  0.64049776     0.37100
O1465       O  0.55278097  0.14922577  0.63916155    -1.11200
O1466       O  0.56407553  0.10519861  0.61039656    -0.67800
Ni1467     Ni  0.54884390  0.13320120  0.60215621     1.26300
O1468       O  0.57846562  0.20989914  0.62542040    -0.68100
O1469       O  0.50753014  0.10008655  0.60723483    -0.80400
C1470       C  0.54430667  0.13925580  0.54580748     0.83100
O1471       O  0.54561507  0.12117577  0.56378340    -0.67500
Ni1472     Ni  0.54422859  0.12249991  0.67033176     1.27400
Ni1473     Ni  0.59404021  0.18282892  0.63503278     1.26100
H1474       H  0.60367944  0.15752312  0.59800796     0.37600
O1475       O  0.93823063  0.10684708  0.45230534    -0.82300
O1476       O  0.89703600  0.09656200  0.32953431    -0.67000
O1477       O  0.90665338  0.07364699  0.40413377    -1.13600
C1478       C  0.49996125  0.08602917  0.36898511     1.04600
O1479       O  0.90766927  0.06157773  0.31436113    -0.80200
O1480       O  0.92661700  0.03134201  0.34678397    -0.67800
Ni1481     Ni  0.89754659  0.08969693  0.43610770     1.34900
C1482       C  0.92416574  0.02121991  0.37159941     0.83300
O1483       O  0.86019481  0.07875968  0.37529526    -0.80800
O1484       O  0.85635483  0.07392309  0.42236577    -0.91000
C1485       C  0.89818288  0.08038004  0.30975120     0.82900
O1486       O  0.90892691  0.12948150  0.42172138    -0.69200
O1487       O  0.98593706  0.07923413  0.34533324    -0.88500
C1488       C  0.91777335  0.14266901  0.39802532     0.83700
C1489       C  0.84499655  0.07334026  0.39814481     1.05300
H1490       H  0.95551571  0.11381601  0.35862156     0.37100
O1491       O  0.94140410  0.09211725  0.36157941    -1.11200
O1492       O  0.93250704  0.03859989  0.39302869    -0.67800
Ni1493     Ni  0.94787234  0.08212919  0.39872691     1.26300
O1494       O  0.91833391  0.12872516  0.37608532    -0.68100
O1495       O  0.98872956  0.09023430  0.39134306    -0.80400
C1496       C  0.95500986  0.09456411  0.45516319     0.83100
O1497       O  0.95396005  0.07545697  0.43727202    -0.67500
Ni1498     Ni  0.94660956  0.07139316  0.33097514     1.27400
Ni1499     Ni  0.90092898  0.08573633  0.36758362     1.26100
H1500       H  0.89326433  0.05160515  0.40532678     0.37600
O1501       O  0.84172439  0.42419674  0.81254357    -0.82300
O1502       O  0.87296694  0.40916758  0.93661954    -0.67000
O1503       O  0.84332493  0.39307010  0.86087243    -1.13600
C1504       C  0.76572497  0.41176548  0.89704975     1.04600
O1505       O  0.82604998  0.37852102  0.95293138    -0.80200
O1506       O  0.77481529  0.35404005  0.92113085    -0.67800
Ni1507     Ni  0.87026206  0.41434303  0.83038497     1.34900
C1508       C  0.76878271  0.34220697  0.89685440     0.83300
O1509       O  0.89205725  0.39406088  0.89091280    -0.80800
O1510       O  0.90168591  0.40663161  0.84525062    -0.91000
C1511       C  0.85519876  0.39050312  0.95512305     0.82900
O1512       O  0.88923584  0.45419997  0.84624351    -0.69200
O1513       O  0.77453300  0.40811101  0.92130505    -0.88500
C1514       C  0.89639177  0.46395807  0.87110806     0.83700
C1515       C  0.90796030  0.39872271  0.86881627     1.05300
H1516       H  0.83592412  0.43323019  0.90538226     0.37100
O1517       O  0.82711722  0.41122944  0.90372104    -1.11200
O1518       O  0.78211154  0.35734674  0.87472019    -0.67800
Ni1519     Ni  0.80986269  0.40048979  0.86676022     1.26300
O1520       O  0.88794143  0.44614121  0.89240593    -0.68100
O1521       O  0.77719142  0.40902516  0.87410664    -0.80400
C1522       C  0.81314686  0.40627743  0.80840653     0.83100
O1523       O  0.79555472  0.39076631  0.82851347    -0.67500
Ni1524     Ni  0.80141561  0.39407837  0.93558587     1.27400
Ni1525     Ni  0.85969622  0.40255245  0.89817590     1.26100
H1526       H  0.83519302  0.37132927  0.85788386     0.37600
O1527       O  0.93493771  0.33214559  0.18664509    -0.82300
O1528       O  0.91989537  0.36224375  0.06325256    -0.67000
O1529       O  0.90311204  0.33344100  0.13912495    -1.13600
C1530       C  0.92063522  0.25477487  0.10396528     1.04600
O1531       O  0.88791665  0.31538894  0.04780876    -0.80200
O1532       O  0.86349964  0.26405692  0.07992497    -0.67800
Ni1533     Ni  0.92409740  0.36019523  0.16952076     1.34900
C1534       C  0.85165664  0.25861714  0.10424643     0.83300
O1535       O  0.90539904  0.38271215  0.10865940    -0.80800
O1536       O  0.91521333  0.39075022  0.15487059    -0.91000
C1537       C  0.90050949  0.34454568  0.04525014     0.82900
O1538       O  0.96407673  0.38033602  0.15358542    -0.69200
O1539       O  0.91766281  0.26380732  0.07953540    -0.88500
C1540       C  0.97420661  0.38616577  0.12871285     0.83700
C1541       C  0.90845683  0.39771391  0.13105923     1.05300
H1542       H  0.94284266  0.32474953  0.09501217     0.37100
O1543       O  0.92084296  0.31636401  0.09669804    -1.11200
O1544       O  0.86674543  0.27244849  0.12616062    -0.67800
Ni1545     Ni  0.90998878  0.29960154  0.13381367     1.26300
O1546       O  0.95670660  0.37676372  0.10728944    -0.68100
O1547       O  0.91771442  0.26634503  0.12677635    -0.80400
C1548       C  0.91642597  0.30400551  0.19195166     0.83100
O1549       O  0.90030034  0.28595431  0.17238047    -0.67500
Ni1550     Ni  0.90351793  0.29062842  0.06507950     1.27400
Ni1551     Ni  0.91296661  0.34951354  0.10176560     1.26100
H1552       H  0.88133004  0.32559369  0.14194812     0.37600
O1553       O  0.65728957  0.07406750  0.18662800    -0.82300
O1554       O  0.63006154  0.03874155  0.06253691    -0.67000
O1555       O  0.65977689  0.04602648  0.13754131    -1.13600
C1556       C  0.73735389  0.14448072  0.10550244     1.04600
O1557       O  0.67687380  0.05395473  0.04666047    -0.80200
O1558       O  0.72727083  0.07689904  0.07945415    -0.67800
Ni1559     Ni  0.63278184  0.03507799  0.16862423     1.34900
C1560       C  0.73386545  0.07164234  0.10385896     0.83300
O1561       O  0.61030059  0.50078477  0.10599009    -0.80800
O1562       O  0.60566704  0.49537470  0.15286219    -0.91000
C1563       C  0.64765017  0.03788433  0.04402961     0.82900
O1564       O  0.60730047  0.05037218  0.15505974    -0.69200
O1565       O  0.73011083  0.13258588  0.08102588    -0.88500
C1566       C  0.60294417  0.05905229  0.13130333     0.83700
C1567       C  0.59732973  0.48517204  0.12798438     1.05300
H1568       H  0.66749464  0.09676410  0.09508830     0.37100
O1569       O  0.67612141  0.08336714  0.09663607    -1.11200
O1570       O  0.72141335  0.07441834  0.12601823    -0.67800
Ni1571     Ni  0.69224447  0.08790214  0.13387137     1.26300
O1572       O  0.61582555  0.05743956  0.10897551    -0.68100
O1573       O  0.72430729  0.12986848  0.12806205    -0.80400
C1574       C  0.68592108  0.08695520  0.19191739     0.83100
O1575       O  0.70499814  0.09085171  0.17262920    -0.67500
Ni1576     Ni  0.70244526  0.09284993  0.06529450     1.27400
Ni1577     Ni  0.64328650  0.04201161  0.10063886     1.26100
H1578       H  0.66883388  0.03297572  0.13859365     0.37600
O1579       O  0.57336438  0.40434332  0.81015899    -0.82300
O1580       O  0.58312717  0.44912223  0.93424882    -0.67000
O1581       O  0.60157891  0.43646629  0.85938257    -1.13600
C1582       C  0.58203530  0.34016877  0.89812419     1.04600
O1583       O  0.61455457  0.43376798  0.95079175    -0.80200
O1584       O  0.63864181  0.40522838  0.92173494    -0.67800
Ni1585     Ni  0.58093968  0.44180297  0.82806751     1.34900
C1586       C  0.65156532  0.41245561  0.89788503     0.83300
O1587       O  0.59925328  0.48391338  0.88816005    -0.80800
O1588       O  0.58641780  0.48011760  0.84257163    -0.91000
C1589       C  0.60191143  0.45024750  0.95282145     0.82900
O1590       O  0.54045785  0.41950316  0.84292912    -0.69200
O1591       O  0.58358389  0.35202956  0.92214714    -0.88500
C1592       C  0.53018789  0.41798168  0.86746035     0.83700
C1593       C  0.59372600  0.49453169  0.86588653     1.05300
H1594       H  0.56021471  0.38858424  0.90352332     0.37100
O1595       O  0.58230698  0.40191862  0.90244735    -1.11200
O1596       O  0.63748564  0.41229762  0.87553534    -0.67800
Ni1597     Ni  0.59453431  0.39580521  0.86637950     1.26300
O1598       O  0.54755596  0.42766832  0.88901622    -0.68100
O1599       O  0.58663142  0.35490629  0.87496955    -0.80400
C1600       C  0.59094315  0.39299979  0.80796976     0.83100
O1601       O  0.60577849  0.39133567  0.82893495    -0.67500
Ni1602     Ni  0.59838051  0.39322666  0.93513728     1.27400
Ni1603     Ni  0.59093361  0.44306510  0.89613231     1.26100
H1604       H  0.62347984  0.45041541  0.85673500     0.37600
O1605       O  0.58368013  0.15214718  0.81401291    -0.82300
O1606       O  0.54769186  0.12073436  0.93854498    -0.67000
O1607       O  0.55503370  0.15141043  0.86382585    -1.13600
C1608       C  0.65425718  0.22768510  0.89700024     1.04600
O1609       O  0.56264842  0.16747635  0.95421256    -0.80200
O1610       O  0.59002233  0.22005876  0.92377928    -0.67800
Ni1611     Ni  0.54492338  0.12562940  0.83208106     1.34900
C1612       C  0.58236674  0.22589830  0.90007778     0.83300
O1613       O  0.50979495  0.10123760  0.89470108    -0.80800
O1614       O  0.50536109  0.09675291  0.84774054    -0.91000
C1615       C  0.54644159  0.13829937  0.95687747     0.82900
O1616       O  0.56183489  0.10113839  0.84456812    -0.69200
O1617       O  0.64330617  0.21821058  0.92162101    -0.88500
C1618       C  0.56941247  0.09524076  0.86824378     0.83700
C1619       C  0.99481478  0.08802818  0.87252627     1.05300
H1620       H  0.60590770  0.15825319  0.90509138     0.37100
O1621       O  0.59246768  0.16689809  0.90451553    -1.11200
O1622       O  0.58189268  0.21200523  0.87771139    -0.67800
Ni1623     Ni  0.59666047  0.18441334  0.86807983     1.26300
O1624       O  0.56657491  0.10667082  0.89110148    -0.68100
O1625       O  0.63848284  0.21698352  0.87444246    -0.80400
C1626       C  0.59569203  0.18089415  0.80985811     0.83100
O1627       O  0.59920006  0.19881121  0.83000189    -0.67500
Ni1628     Ni  0.60266039  0.19198672  0.93669536     1.27400
Ni1629     Ni  0.55108354  0.13412332  0.90035207     1.26100
H1630       H  0.54154471  0.15999642  0.86309829     0.37600
O1631       O  0.91455908  0.06290815  0.19175484    -0.82300
O1632       O  0.95652393  0.07279291  0.06601724    -0.67000
O1633       O  0.94495854  0.09064895  0.14139931    -1.13600
C1634       C  0.84717895  0.06950471  0.10515468     1.04600
O1635       O  0.93997083  0.10338187  0.04997394    -0.80200
O1636       O  0.91103753  0.12647231  0.08010700    -0.67800
Ni1637     Ni  0.95134297  0.07034485  0.17237358     1.34900
C1638       C  0.91899923  0.13953277  0.10382134     0.83300
O1639       O  0.99218270  0.08939455  0.11122997    -0.80800
O1640       O  0.98911645  0.07580882  0.15658287    -0.91000
C1641       C  0.95725239  0.09160994  0.04767908     0.82900
O1642       O  0.92855751  0.02999609  0.15768174    -0.69200
O1643       O  0.85839619  0.07078362  0.08080400    -0.88500
C1644       C  0.92696450  0.01964825  0.13319081     0.83700
C1645       C  0.50315236  0.08363805  0.13307505     1.05300
H1646       H  0.89631294  0.04871212  0.09819857     0.37100
O1647       O  0.90938925  0.07080635  0.09905984    -1.11200
O1648       O  0.91975064  0.12571741  0.12603694    -0.67800
Ni1649     Ni  0.90392762  0.08299320  0.13538324     1.26300
O1650       O  0.93643634  0.03694448  0.11150849    -0.68100
O1651       O  0.86264254  0.07460846  0.12788783    -0.80400
C1652       C  0.90263809  0.07996223  0.19393919     0.83100
O1653       O  0.90019761  0.09428073  0.17294030    -0.67500
Ni1654     Ni  0.89952322  0.08640838  0.06671023     1.27400
Ni1655     Ni  0.95093676  0.08019811  0.10435149     1.26100
H1656       H  0.95871621  0.11247923  0.14389249     0.37600
C1657       C  0.01394870  0.09605113  0.99181417    -0.14800
C1658       C  0.52385842  0.12544200  0.98025713     0.07400
C1659       C  0.51162412  0.14305027  0.99102675    -0.14800
C1660       C  0.48988079  0.13164806  0.01254104    -0.14800
C1661       C  0.98011833  0.10251659  0.02445955     0.07400
C1662       C  0.99260676  0.08487063  0.01408093    -0.14800
H1663       H  0.02300040  0.08197686  0.98390813     0.11400
H1664       H  0.51853885  0.16564765  0.98247441     0.11400
H1665       H  0.48096509  0.14596833  0.02013153     0.11400
H1666       H  0.98555270  0.06235219  0.02288000     0.11400
C1667       C  0.57914159  0.29514845  0.87247800    -0.14800
C1668       C  0.57611991  0.30808089  0.89749860     0.07400
C1669       C  0.57056757  0.29122906  0.92261826    -0.14800
C1670       C  0.57046072  0.26336133  0.92308901    -0.14800
C1671       C  0.57574339  0.25153916  0.89844207     0.07400
C1672       C  0.57887453  0.26710328  0.87293868    -0.14800
H1673       H  0.58333877  0.30743398  0.85274764     0.11400
H1674       H  0.56776702  0.30025113  0.94225609     0.11400
H1675       H  0.56766228  0.25178247  0.94303907     0.11400
H1676       H  0.58306139  0.25863010  0.85359201     0.11400
C1677       C  0.58904623  0.03479468  0.89300036    -0.14800
C1678       C  0.59361713  0.02403254  0.86728491     0.07400
C1679       C  0.59399393  0.03952378  0.84251085    -0.14800
C1680       C  0.58788765  0.06378664  0.84318539    -0.14800
C1681       C  0.58099268  0.07310732  0.86863612     0.07400
C1682       C  0.58272584  0.05905946  0.89366763    -0.14800
H1683       H  0.58852305  0.02328746  0.91247526     0.11400
H1684       H  0.59797117  0.53220513  0.82245211     0.11400
H1685       H  0.58731388  0.07440473  0.82349538     0.11400
H1686       H  0.57767221  0.06573549  0.91360751     0.11400
C1687       C  0.60376932  0.50253068  0.01157849    -0.14800
C1688       C  0.63480546  0.01595008  0.02029198     0.07400
C1689       C  0.65414702  0.00749713  0.00654021    -0.14800
C1690       C  0.64303768  0.48624072  0.98485122    -0.14800
C1691       C  0.61233575  0.47305051  0.97577796     0.07400
C1692       C  0.59271706  0.48154605  0.98911997    -0.14800
H1693       H  0.58823162  0.50841110  0.02194273     0.11400
H1694       H  0.67800220  0.01695750  0.01286177     0.11400
H1695       H  0.65873871  0.48026748  0.97492629     0.11400
H1696       H  0.56885804  0.47152142  0.98260767     0.11400
C1697       C  0.56518102  0.06923367  0.10525100    -0.14800
C1698       C  0.58113533  0.07075683  0.13007080     0.07400
C1699       C  0.57406338  0.08103941  0.15477903    -0.14800
C1700       C  0.55000501  0.08740442  0.15523521    -0.14800
C1701       C  0.53258815  0.08379070  0.13096244     0.07400
C1702       C  0.54105756  0.07574424  0.10569135    -0.14800
H1703       H  0.57014268  0.06133780  0.08594033     0.11400
H1704       H  0.58633105  0.08295384  0.17413486     0.11400
H1705       H  0.04411726  0.09381342  0.17491790     0.11400
H1706       H  0.52777256  0.07251702  0.08672305     0.11400
C1707       C  0.77566256  0.06927851  0.13128490    -0.14800
C1708       C  0.75885283  0.06405280  0.10621484     0.07400
C1709       C  0.76910594  0.05598061  0.08206381    -0.14800
C1710       C  0.79682799  0.05571917  0.08228874    -0.14800
C1711       C  0.81503571  0.06350385  0.10668751     0.07400
C1712       C  0.80353744  0.06903329  0.13151419    -0.14800
H1713       H  0.76839897  0.07559758  0.15023892     0.11400
H1714       H  0.75652525  0.05146393  0.06247880     0.11400
H1715       H  0.80472826  0.05094121  0.06287881     0.11400
H1716       H  0.81693687  0.07501504  0.15070754     0.11400
C1717       C  0.52049618  0.42337763  0.10063661    -0.14800
C1718       C  0.00790886  0.40602708  0.12522525     0.07400
C1719       C  0.52744957  0.41076479  0.14824554    -0.14800
C1720       C  0.55786431  0.43483746  0.14805041    -0.14800
C1721       C  0.56943297  0.45461719  0.12478734     0.07400
C1722       C  0.55113909  0.44755082  0.10040610    -0.14800
H1723       H  0.00608042  0.41993524  0.08244370     0.11400
H1724       H  0.51865164  0.39716158  0.16723055     0.11400
H1725       H  0.57159412  0.43931247  0.16691846     0.11400
H1726       H  0.55953733  0.46229295  0.08204281     0.11400
C1727       C  0.80870837  0.21596541  0.13177223    -0.14800
C1728       C  0.81928832  0.23335268  0.10687578     0.07400
C1729       C  0.80035429  0.22327957  0.08294162    -0.14800
C1730       C  0.77272263  0.19527440  0.08315404    -0.14800
C1731       C  0.76325878  0.17661377  0.10732464     0.07400
C1732       C  0.78088599  0.18778875  0.13199414    -0.14800
H1733       H  0.82291183  0.22303864  0.15049482     0.11400
H1734       H  0.80770900  0.23628837  0.06351467     0.11400
H1735       H  0.75946332  0.18756722  0.06391085     0.11400
H1736       H  0.77421429  0.17390835  0.15093297     0.11400
C1737       C  0.90064458  0.43760326  0.15417391    -0.14800
C1738       C  0.90592935  0.42581040  0.12956480     0.07400
C1739       C  0.91315917  0.44337268  0.10473191    -0.14800
C1740       C  0.91795501  0.47339195  0.10523022    -0.14800
C1741       C  0.91534151  0.48614051  0.13052546     0.07400
C1742       C  0.90512718  0.46731539  0.15462473    -0.14800
H1743       H  0.89460866  0.42443822  0.17353393     0.11400
H1744       H  0.91731158  0.43480488  0.08542369     0.11400
H1745       H  0.92555855  0.98724111  0.08630902     0.11400
H1746       H  0.90234674  0.47612351  0.17439853     0.11400
C1747       C  0.92046660  0.21110253  0.13048652    -0.14800
C1748       C  0.92620471  0.22836803  0.10558196     0.07400
C1749       C  0.93399111  0.21809765  0.08126165    -0.14800
C1750       C  0.93370744  0.19013012  0.08124264    -0.14800
C1751       C  0.92580480  0.17179845  0.10557382     0.07400
C1752       C  0.92031554  0.18308902  0.13048643    -0.14800
H1753       H  0.91434936  0.21831352  0.14958278     0.11400
H1754       H  0.93893784  0.23098628  0.06180942     0.11400
H1755       H  0.93834010  0.18218232  0.06179301     0.11400
H1756       H  0.91395696  0.16937016  0.14952320     0.11400
C1757       C  0.72604541  0.29866189  0.86989095    -0.14800
C1758       C  0.74343497  0.30977105  0.89468551     0.07400
C1759       C  0.73333899  0.29122499  0.91892702    -0.14800
C1760       C  0.70531629  0.26354095  0.91908260    -0.14800
C1761       C  0.68657100  0.25360109  0.89498413     0.07400
C1762       C  0.69784814  0.27082306  0.87004340    -0.14800
H1763       H  0.73313321  0.31244912  0.85089729     0.11400
H1764       H  0.74633468  0.29891627  0.93831309     0.11400
H1765       H  0.69765154  0.25070134  0.93856919     0.11400
H1766       H  0.68405501  0.26379231  0.85107728     0.11400
C1767       C  0.93491965  0.50967715  0.89884256    -0.14800
C1768       C  0.91670231  0.49756263  0.87467266     0.07400
C1769       C  0.92059238  0.01757777  0.85222399    -0.14800
C1770       C  0.94448340  0.04810005  0.85255247    -0.14800
C1771       C  0.96474539  0.05939345  0.87548287     0.07400
C1772       C  0.95873344  0.04042101  0.89926703    -0.14800
H1773       H  0.93220800  0.49492481  0.91658493     0.11400
H1774       H  0.90642334  0.00913737  0.83354484     0.11400
H1775       H  0.94828914  0.06228405  0.83409861     0.11400
H1776       H  0.47401863  0.04850381  0.91726626     0.11400
C1777       C  0.70127434  0.42462938  0.92090778    -0.14800
C1778       C  0.68390196  0.41919224  0.89620305     0.07400
C1779       C  0.69601644  0.41566470  0.87085493    -0.14800
C1780       C  0.72371613  0.41507535  0.87069233    -0.14800
C1781       C  0.73979029  0.41809062  0.89587140     0.07400
C1782       C  0.72884763  0.42409935  0.92074450    -0.14800
H1783       H  0.69276951  0.42774916  0.94073816     0.11400
H1784       H  0.68312862  0.41134313  0.85147371     0.11400
H1785       H  0.73156620  0.41051755  0.85114423     0.11400
H1786       H  0.74082860  0.42697286  0.94045961     0.11400
C1787       C  0.94713327  0.38839392  0.84739920    -0.14800
C1788       C  0.93635730  0.39690604  0.87080574     0.07400
C1789       C  0.95501261  0.40778244  0.89487535    -0.14800
C1790       C  0.98503290  0.41257662  0.89464553    -0.14800
C1791       C  0.49672497  0.40633988  0.87039010     0.07400
C1792       C  0.97693732  0.39278652  0.84728230    -0.14800
H1793       H  0.93300967  0.37967890  0.82871630     0.11400
H1794       H  0.94722113  0.41469683  0.91312849     0.11400
H1795       H  0.49968164  0.42305010  0.91275121     0.11400
H1796       H  0.98508174  0.38727539  0.82841205     0.11400
C1797       C  0.84854063  0.35122227  0.99106817    -0.14800
C1798       C  0.86771710  0.38006569  0.97854518     0.07400
C1799       C  0.89830215  0.39770029  0.98832367    -0.14800
C1800       C  0.90917113  0.38665227  0.01033969    -0.14800
C1801       C  0.88994766  0.35737211  0.02226131     0.07400
C1802       C  0.85957103  0.33992643  0.01230426    -0.14800
H1803       H  0.82494021  0.33694006  0.98405380     0.11400
H1804       H  0.91364360  0.42004065  0.97914731     0.11400
H1805       H  0.93267515  0.40068800  0.01768479     0.11400
H1806       H  0.84404868  0.31749230  0.02123287     0.11400
C1807       C  0.90371639  0.11012540  0.26581855    -0.14800
C1808       C  0.88870661  0.08220750  0.28080119     0.07400
C1809       C  0.87183727  0.05461093  0.26595902    -0.14800
C1810       C  0.87324718  0.05442855  0.23677556    -0.14800
C1811       C  0.89132014  0.08187211  0.22187800     0.07400
C1812       C  0.90502549  0.10995129  0.23637176    -0.14800
H1813       H  0.91734774  0.13161664  0.27684713     0.11400
H1814       H  0.86027172  0.03280605  0.27708438     0.11400
H1815       H  0.86270541  0.03251878  0.22603623     0.11400
H1816       H  0.91954778  0.13132837  0.22529847     0.11400
C1817       C  0.62017491  0.17882339  0.73691163    -0.14800
C1818       C  0.60448682  0.19098711  0.72191425     0.07400
C1819       C  0.59284291  0.20722603  0.73653754    -0.14800
C1820       C  0.59354901  0.20780231  0.76607642    -0.14800
C1821       C  0.60589854  0.19214225  0.78100120     0.07400
C1822       C  0.62089762  0.17941909  0.76612532    -0.14800
H1823       H  0.62926464  0.16614538  0.72611248     0.11400
H1824       H  0.58028173  0.21643225  0.72541434     0.11400
H1825       H  0.58146465  0.21738581  0.77711552     0.11400
H1826       H  0.63046759  0.16712609  0.77715922     0.11400
C1827       C  0.48991146  0.08702782  0.48886136    -0.14800
C1828       C  0.97761920  0.10501068  0.47855739     0.07400
C1829       C  0.98744600  0.13394487  0.49060375    -0.14800
C1830       C  0.00934164  0.14492528  0.51206669    -0.14800
C1831       C  0.52155853  0.12702270  0.52257555     0.07400
C1832       C  0.51138803  0.09776784  0.51102031    -0.14800
H1833       H  0.48269001  0.06461604  0.48000171     0.11400
H1834       H  0.97855279  0.14844521  0.48310869     0.11400
H1835       H  0.01643012  0.16739997  0.52073934     0.11400
H1836       H  0.52037695  0.08347067  0.51882421     0.11400
C1837       C  0.56444369  0.36324761  0.73632884    -0.14800
C1838       C  0.59163231  0.38117575  0.72108064     0.07400
C1839       C  0.61998030  0.39575650  0.73546224    -0.14800
C1840       C  0.62051916  0.39593914  0.76496454    -0.14800
C1841       C  0.59271550  0.38149363  0.78007967     0.07400
C1842       C  0.56498876  0.36336613  0.76557141    -0.14800
H1843       H  0.54233520  0.35189487  0.72567782     0.11400
H1844       H  0.64119738  0.41003509  0.72411693     0.11400
H1845       H  0.64212606  0.41041139  0.77571666     0.11400
H1846       H  0.54327741  0.35216464  0.77679150     0.11400
C1847       C  0.57702650  0.29398005  0.63024103    -0.14800
C1848       C  0.57344440  0.30671252  0.60505836     0.07400
C1849       C  0.56681686  0.28945251  0.58030104    -0.14800
C1850       C  0.56650255  0.26150586  0.58019688    -0.14800
C1851       C  0.57260847  0.24999971  0.60486674     0.07400
C1852       C  0.57652243  0.26580724  0.63015276    -0.14800
H1853       H  0.58194997  0.30655016  0.64973162     0.11400
H1854       H  0.56344492  0.29825975  0.56059640     0.11400
H1855       H  0.56301741  0.24965562  0.56044782     0.11400
H1856       H  0.58130714  0.25751077  0.64950653     0.11400
C1857       C  0.59256898  0.03733494  0.65693380    -0.14800
C1858       C  0.59123323  0.02220080  0.63191158     0.07400
C1859       C  0.58699297  0.03397932  0.60642983    -0.14800
C1860       C  0.58175286  0.05897522  0.60631702    -0.14800
C1861       C  0.58094933  0.07270847  0.63167494     0.07400
C1862       C  0.58768720  0.06232969  0.65680954    -0.14800
H1863       H  0.59616781  0.02906389  0.67685760     0.11400
H1864       H  0.58599495  0.52286425  0.58687333     0.11400
H1865       H  0.57675403  0.06645214  0.58660133     0.11400
H1866       H  0.58770316  0.07253788  0.67674625     0.11400
C1867       C  0.67943923  0.11076109  0.26419991    -0.14800
C1868       C  0.69469537  0.09875625  0.28011082     0.07400
C1869       C  0.71330972  0.08936347  0.26623469    -0.14800
C1870       C  0.71372261  0.08882075  0.23668517    -0.14800
C1871       C  0.69555540  0.09770673  0.22097477     0.07400
C1872       C  0.67987939  0.11025898  0.23502337    -0.14800
H1873       H  0.66497000  0.11817843  0.27436020     0.11400
H1874       H  0.72497404  0.07965686  0.27806624     0.11400
H1875       H  0.72563587  0.07864315  0.22632420     0.11400
H1876       H  0.66566885  0.11721443  0.22342227     0.11400
C1877       C  0.65369005  0.00940706  0.49517407    -0.14800
C1878       C  0.63360501  0.01653617  0.48049054     0.07400
C1879       C  0.60226235  0.50150519  0.48825332    -0.14800
C1880       C  0.59144788  0.48001697  0.51043846    -0.14800
C1881       C  0.61163763  0.47265195  0.52461835     0.07400
C1882       C  0.64281268  0.48769493  0.51683410    -0.14800
H1883       H  0.67788429  0.02032973  0.48968666     0.11400
H1884       H  0.58619361  0.50634549  0.47719352     0.11400
H1885       H  0.56727251  0.46865265  0.51606961     0.11400
H1886       H  0.65891815  0.48265227  0.52758523     0.11400
C1887       C  0.57009833  0.08299068  0.34611556    -0.14800
C1888       C  0.57867807  0.07401480  0.37104665     0.07400
C1889       C  0.56419378  0.07391132  0.39624372    -0.14800
C1890       C  0.53994055  0.08029241  0.39602726    -0.14800
C1891       C  0.52979971  0.08674652  0.37060511     0.07400
C1892       C  0.54592253  0.08917897  0.34588424    -0.14800
H1893       H  0.58116972  0.08391345  0.32639376     0.11400
H1894       H  0.57040032  0.06724875  0.41579506     0.11400
H1895       H  0.02784223  0.07815263  0.41542308     0.11400
H1896       H  0.53888283  0.09441890  0.32603744     0.11400
C1897       C  0.77206567  0.07070598  0.37200897    -0.14800
C1898       C  0.75689450  0.06812961  0.39746981     0.07400
C1899       C  0.76881419  0.06296497  0.42233868    -0.14800
C1900       C  0.79647311  0.06270362  0.42214418    -0.14800
C1901       C  0.81301546  0.06770490  0.39707468     0.07400
C1902       C  0.79997824  0.07058970  0.37181927    -0.14800
H1903       H  0.76343150  0.07475763  0.35250473     0.11400
H1904       H  0.75752421  0.06059439  0.44226697     0.11400
H1905       H  0.80560861  0.06010374  0.44197623     0.11400
H1906       H  0.81208174  0.07436683  0.35213525     0.11400
C1907       C  0.94135248  0.30828219  0.26639823    -0.14800
C1908       C  0.91302665  0.29510577  0.28050328     0.07400
C1909       C  0.88563151  0.27803328  0.26505048    -0.14800
C1910       C  0.88657898  0.27736691  0.23553308    -0.14800
C1911       C  0.91493222  0.29377501  0.22140147     0.07400
C1912       C  0.94229899  0.30756659  0.23721781    -0.14800
H1913       H  0.96276316  0.32163027  0.27782359     0.11400
H1914       H  0.86348991  0.26805229  0.27546158     0.11400
H1915       H  0.86514518  0.26691336  0.22381376     0.11400
H1916       H  0.96445035  0.32037612  0.22687327     0.11400
C1917       C  0.91378588  0.44569265  0.39938214    -0.14800
C1918       C  0.90229846  0.42719997  0.37533413     0.07400
C1919       C  0.89375850  0.43843181  0.35200155    -0.14800
C1920       C  0.89878089  0.46834871  0.35179344    -0.14800
C1921       C  0.91278474  0.48791460  0.37482255     0.07400
C1922       C  0.91909619  0.47591986  0.39909913    -0.14800
H1923       H  0.92077127  0.43761797  0.41760107     0.11400
H1924       H  0.88462890  0.42458282  0.33330016     0.11400
H1925       H  0.89309594  0.97661799  0.33288576     0.11400
H1926       H  0.92995254  0.49044139  0.41712721     0.11400
C1927       C  0.93210380  0.19257157  0.42071413    -0.14800
C1928       C  0.92599137  0.17532228  0.39607039     0.07400
C1929       C  0.92354239  0.18816692  0.37052810    -0.14800
C1930       C  0.92394002  0.21631027  0.37020536    -0.14800
C1931       C  0.92687920  0.23195757  0.39542385     0.07400
C1932       C  0.93266873  0.22058410  0.42037957    -0.14800
H1933       H  0.93471835  0.18358825  0.44064013     0.11400
H1934       H  0.91903625  0.17545789  0.35115825     0.11400
H1935       H  0.91981858  0.22466206  0.35056911     0.11400
H1936       H  0.93576583  0.23236906  0.44010151     0.11400
C1937       C  0.51775860  0.42379088  0.39889627    -0.14800
C1938       C  0.00373080  0.40852320  0.37381848     0.07400
C1939       C  0.52193322  0.41571566  0.34951367    -0.14800
C1940       C  0.55236989  0.43978418  0.34945566    -0.14800
C1941       C  0.56548772  0.45725170  0.37373199     0.07400
C1942       C  0.54846301  0.44798081  0.39886068    -0.14800
H1943       H  0.00446242  0.41853286  0.41803235     0.11400
H1944       H  0.51212888  0.40392949  0.32994874     0.11400
H1945       H  0.56495395  0.44595624  0.32985243     0.11400
H1946       H  0.55798669  0.46090091  0.41797883     0.11400
C1947       C  0.80433184  0.21889360  0.36890006    -0.14800
C1948       C  0.81634675  0.23495353  0.39413917     0.07400
C1949       C  0.79808504  0.22450620  0.41839952    -0.14800
C1950       C  0.76995245  0.19708264  0.41822477    -0.14800
C1951       C  0.75926375  0.17925522  0.39377953     0.07400
C1952       C  0.77597741  0.19118696  0.36872806    -0.14800
H1953       H  0.81778652  0.22650497  0.34980154     0.11400
H1954       H  0.80635636  0.23664336  0.43806753     0.11400
H1955       H  0.75745141  0.18900376  0.43778577     0.11400
H1956       H  0.76822262  0.17817802  0.34945300     0.11400
C1957       C  0.78628411  0.37560694  0.73586344    -0.14800
C1958       C  0.80212426  0.40316288  0.72040537     0.07400
C1959       C  0.81441901  0.43129064  0.73452897    -0.14800
C1960       C  0.81417444  0.43203455  0.76374146    -0.14800
C1961       C  0.80173690  0.40465669  0.77946454     0.07400
C1962       C  0.78608420  0.37635445  0.76536925    -0.14800
H1963       H  0.77704687  0.35364451  0.72539763     0.11400
H1964       H  0.82682267  0.45280022  0.72304658     0.11400
H1965       H  0.82646071  0.45412555  0.77411334     0.11400
H1966       H  0.77677477  0.35495443  0.77704352     0.11400
C1967       C  0.72216538  0.29883288  0.63244194    -0.14800
C1968       C  0.74031517  0.30826660  0.60803515     0.07400
C1969       C  0.73131388  0.28827154  0.58507871    -0.14800
C1970       C  0.70343211  0.26055108  0.58553634    -0.14800
C1971       C  0.68382513  0.25229159  0.60891136     0.07400
C1972       C  0.69405344  0.27103981  0.63286171    -0.14800
H1973       H  0.72853959  0.31393053  0.65039892     0.11400
H1974       H  0.74507344  0.29484101  0.56614205     0.11400
H1975       H  0.69647843  0.24637504  0.56692387     0.11400
H1976       H  0.67946955  0.26528756  0.65119579     0.11400
C1977       C  0.92259978  0.01207793  0.65052963    -0.14800
C1978       C  0.91666709  0.49360723  0.62669050     0.07400
C1979       C  0.93315872  0.50725695  0.60192735    -0.14800
C1980       C  0.95697668  0.03804969  0.60185698    -0.14800
C1981       C  0.96456904  0.05558075  0.62657717     0.07400
C1982       C  0.94625353  0.04262559  0.65047961    -0.14800
H1983       H  0.90992891  0.00249924  0.66981104     0.11400
H1984       H  0.92897553  0.49365406  0.58317871     0.11400
H1985       H  0.47083232  0.04741828  0.58313322     0.11400
H1986       H  0.95131294  0.05561985  0.66973784     0.11400
C1987       C  0.72157830  0.41308276  0.63099684    -0.14800
C1988       C  0.73794029  0.41730235  0.60590245     0.07400
C1989       C  0.72735319  0.42463559  0.58126956    -0.14800
C1990       C  0.69973100  0.42505544  0.58111947    -0.14800
C1991       C  0.68201511  0.41829387  0.60561770     0.07400
C1992       C  0.69383774  0.41363152  0.63085872    -0.14800
H1993       H  0.72915171  0.40747484  0.65035018     0.11400
H1994       H  0.73959434  0.42851242  0.56165052     0.11400
H1995       H  0.69142551  0.42909713  0.56141156     0.11400
H1996       H  0.68062726  0.40826684  0.65006252     0.11400
C1997       C  0.95143891  0.40263728  0.60175896    -0.14800
C1998       C  0.93257931  0.39072961  0.62560208     0.07400
C1999       C  0.94345721  0.38162707  0.64883098    -0.14800
C2000       C  0.97361930  0.38707434  0.64935888    -0.14800
C2001       C  0.49369794  0.40210026  0.62678388     0.07400
C2002       C  0.98185951  0.40838685  0.60237453    -0.14800
H2003       H  0.94359116  0.40989277  0.58356227     0.11400
H2004       H  0.92924242  0.37202317  0.66732444     0.11400
H2005       H  0.98178613  0.38133230  0.66827561     0.11400
H2006       H  0.49667273  0.41976662  0.58456689     0.11400
C2007       C  0.84529508  0.34738917  0.51192649    -0.14800
C2008       C  0.86255296  0.37781423  0.52152032     0.07400
C2009       C  0.89171460  0.39722332  0.50962052    -0.14800
C2010       C  0.90313568  0.38644026  0.48827784    -0.14800
C2011       C  0.88600362  0.35576935  0.47908114     0.07400
C2012       C  0.85699348  0.33642618  0.49126662    -0.14800
H2013       H  0.82287384  0.33178498  0.52081833     0.11400
H2014       H  0.90550048  0.42078939  0.51661717     0.11400
H2015       H  0.92546884  0.40194916  0.47920567     0.11400
H2016       H  0.84301924  0.31277382  0.48454157     0.11400
O2017       O  0.82101614  0.87555495  0.54766940    -0.82300
O2018       O  0.79494535  0.88847053  0.67196044    -0.67000
O2019       O  0.82393782  0.90902935  0.59632618    -1.13600
C2020       C  0.90451616  0.89314183  0.62832617     1.04600
O2021       O  0.84205633  0.91959159  0.68771495    -0.80200
O2022       O  0.89010867  0.94866175  0.65374976    -0.67800
Ni2023     Ni  0.79722359  0.89182484  0.56510067     1.34900
C2024       C  0.89565925  0.95994159  0.62916444     0.83300
O2025       O  0.77551001  0.90744875  0.62707379    -0.80800
O2026       O  0.77147548  0.90673101  0.57986821    -0.91000
C2027       C  0.81322058  0.90328118  0.69184828     0.82900
O2028       O  0.77039153  0.85200664  0.58029706    -0.69200
O2029       O  0.89788729  0.89841702  0.65272324    -0.88500
C2030       C  0.76543391  0.84040753  0.60476807     0.83700
C2031       C  0.76353813  0.91051157  0.60434258     1.05300
H2032       H  0.83245090  0.86771186  0.64024287     0.37100
O2033       O  0.84106379  0.88966533  0.63810596    -1.11200
O2034       O  0.88482465  0.94362306  0.60720827    -0.67800
Ni2035     Ni  0.85658307  0.90029800  0.60066008     1.26300
O2036       O  0.77977491  0.85552326  0.62638699    -0.68100
O2037       O  0.88941775  0.89178297  0.60628890    -0.80400
C2038       C  0.85014315  0.88833085  0.54450947     0.83100
O2039       O  0.86833604  0.90796340  0.56207717    -0.67500
Ni2040     Ni  0.86860994  0.90814540  0.66868570     1.27400
Ni2041     Ni  0.80808044  0.89826536  0.63355827     1.26100
H2042       H  0.83270077  0.93103506  0.59450698     0.37600
O2043       O  0.88486713  0.81462406  0.45350090    -0.82300
O2044       O  0.89782285  0.78834234  0.32900056    -0.67000
O2045       O  0.91818085  0.81743536  0.40463125    -1.13600
C2046       C  0.90389990  0.89873359  0.37270619     1.04600
O2047       O  0.92828566  0.83529923  0.31243480    -0.80200
O2048       O  0.95854358  0.88217751  0.34697234    -0.67800
Ni2049     Ni  0.90102220  0.79088140  0.43598831     1.34900
C2050       C  0.96977739  0.88800643  0.37154121     0.83300
O2051       O  0.91692201  0.76927557  0.37401759    -0.80800
O2052       O  0.91574937  0.76509477  0.42120507    -0.91000
C2053       C  0.91252288  0.80640825  0.30887287     0.82900
O2054       O  0.86105395  0.76451210  0.42097161    -0.69200
O2055       O  0.90958275  0.89224640  0.34843999    -0.88500
C2056       C  0.84914452  0.75941100  0.39664537     0.83700
C2057       C  0.91993905  0.75738364  0.39680870     1.05300
H2058       H  0.87697247  0.82605983  0.36054387     0.37100
O2059       O  0.89895625  0.83457145  0.36272512    -1.11200
O2060       O  0.95322391  0.87805930  0.39356407    -0.67800
Ni2061     Ni  0.90962659  0.85011722  0.40021213     1.26300
O2062       O  0.86436704  0.77319674  0.37476558    -0.68100
O2063       O  0.90140633  0.88306473  0.39462137    -0.80400
C2064       C  0.89720891  0.84364934  0.45636234     0.83100
O2065       O  0.91704171  0.86183408  0.43881597    -0.73500
Ni2066     Ni  0.91794134  0.86221741  0.33217065     1.27400
Ni2067     Ni  0.90744291  0.80155365  0.36742170     1.26100
H2068       H  0.94022338  0.82610823  0.40640464     0.37600
O2069       O  0.67484183  0.55584207  0.45415475    -0.82300
O2070       O  0.70337870  0.59264909  0.32904265    -0.67000
O2071       O  0.67277913  0.58490821  0.40402167    -1.13600
C2072       C  0.59378098  0.98779161  0.37144522     1.04600
O2073       O  0.65641285  0.57882289  0.31484222    -0.80200
O2074       O  0.60591623  0.55545910  0.34560135    -0.67800
Ni2075     Ni  0.69861572  0.59549781  0.43594373     1.34900
C2076       C  0.60048235  0.56216762  0.36965536     0.83300
O2077       O  0.72226533  0.63148783  0.37327731    -0.80800
O2078       O  0.72439918  0.63589638  0.42038836    -0.91000
C2079       C  0.68477780  0.58968780  0.30947494     0.82900
O2080       O  0.72617472  0.58272901  0.42268444    -0.69200
O2081       O  0.60189702  0.99937509  0.34685706    -0.88500
C2082       C  0.73163241  0.57520751  0.39895455     0.83700
C2083       C  0.73337067  0.64703382  0.39575087     1.05300
H2084       H  0.66544815  0.53489954  0.36171099     0.37100
O2085       O  0.65678765  0.54825737  0.36309521    -1.11200
O2086       O  0.61224626  0.55847179  0.39205193    -0.67800
Ni2087     Ni  0.64028765  0.54332642  0.39987532     1.26300
O2088       O  0.71764360  0.57513858  0.37657997    -0.68100
O2089       O  0.60742559  0.00198251  0.39384669    -0.80400
C2090       C  0.64572498  0.53874704  0.45670473     0.83100
O2091       O  0.62755192  0.53898200  0.43816183    -0.67500
Ni2092     Ni  0.63032512  0.53933113  0.33180849     1.27400
Ni2093     Ni  0.68970801  0.58974431  0.36729434     1.26100
H2094       H  0.66380870  0.59803531  0.40473791     0.37600
O2095       O  0.61346009  0.93264077  0.54974723    -0.82300
O2096       O  0.60410392  0.89066237  0.67217670    -0.67000
O2097       O  0.58044492  0.90069046  0.59814285    -1.13600
C2098       C  0.59044963  0.99232723  0.63308841     1.04600
O2099       O  0.57056360  0.90224571  0.69012523    -0.80200
O2100       O  0.53708821  0.91544891  0.65528530    -0.67800
Ni2101     Ni  0.59654061  0.89188086  0.56590562     1.34900
C2102       C  0.52736796  0.91490812  0.63058089     0.83300
O2103       O  0.58531457  0.85406391  0.62664280    -0.80800
O2104       O  0.58097041  0.85057596  0.57955016    -0.91000
C2105       C  0.58898130  0.89189262  0.69288714     0.82900
O2106       O  0.63653393  0.90323987  0.57990752    -0.69200
O2107       O  0.58151434  0.97694161  0.65598648    -0.88500
C2108       C  0.64963834  0.91130990  0.60367328     0.83700
C2109       C  0.57990433  0.83897375  0.60380056     1.05300
H2110       H  0.62073633  0.94922738  0.64418692     0.37100
O2111       O  0.59906005  0.93508079  0.64097971    -1.11200
O2112       O  0.54538465  0.92634868  0.60966107    -0.67800
Ni2113     Ni  0.58898579  0.94176767  0.60378784     1.26300
O2114       O  0.63573015  0.91188994  0.62569134    -0.68100
O2115       O  0.59728767  0.98256833  0.61123765    -0.80400
C2116       C  0.60104965  0.94935430  0.54735496     0.83100
O2117       O  0.58189050  0.94794186  0.56541200    -0.67500
Ni2118     Ni  0.57695570  0.93915418  0.67132991     1.27400
Ni2119     Ni  0.59269196  0.89477046  0.63452912     1.26100
H2120       H  0.55835541  0.88730370  0.59702556     0.37600
O2121       O  0.56065096  0.66829426  0.54879981    -0.82300
O2122       O  0.59631842  0.69678476  0.67302607    -0.67000
O2123       O  0.59018937  0.66607691  0.59858145    -1.13600
C2124       C  0.99424310  0.58471511  0.62932581     1.04600
O2125       O  0.58152640  0.65038034  0.69007065    -0.80200
O2126       O  0.56469539  0.60193410  0.65722645    -0.67800
Ni2127     Ni  0.60056805  0.69194191  0.56660641     1.34900
C2128       C  0.56968103  0.59502678  0.63305309     0.83300
O2129       O  0.63558842  0.71593291  0.62907514    -0.80800
O2130       O  0.64106411  0.71737822  0.58201796    -0.91000
C2131       C  0.59344378  0.67919534  0.69347272     0.82900
O2132       O  0.58819895  0.71990615  0.57974441    -0.69200
O2133       O  0.50608570  0.59194915  0.65383229    -0.88500
C2134       C  0.57964301  0.72467095  0.60326790     0.83700
C2135       C  0.65163591  0.72663541  0.60672250     1.05300
H2136       H  0.53889411  0.65731238  0.64056716     0.37100
O2137       O  0.55278502  0.64925141  0.63923638    -1.11200
O2138       O  0.56404728  0.60518651  0.61050104    -0.67800
Ni2139     Ni  0.54884111  0.63320723  0.60223773     1.26300
O2140       O  0.57849792  0.70991483  0.62545372    -0.68100
O2141       O  0.50752303  0.60011854  0.60731910    -0.80400
C2142       C  0.54429430  0.63923157  0.54588154     0.83100
O2143       O  0.54559538  0.62115632  0.56386861    -0.67500
Ni2144     Ni  0.54423040  0.62253662  0.67041678     1.27400
Ni2145     Ni  0.59404910  0.68283873  0.63509977     1.26100
H2146       H  0.60367437  0.65749185  0.59810307     0.37600
O2147       O  0.93824215  0.60686224  0.45232593    -0.82300
O2148       O  0.89703931  0.59654984  0.32951257    -0.67000
O2149       O  0.90669712  0.57368955  0.40413033    -1.13600
C2150       C  0.50004382  0.58614584  0.36894595     1.04600
O2151       O  0.90769393  0.56156770  0.31438990    -0.80200
O2152       O  0.92683680  0.53144607  0.34674875    -0.67800
Ni2153     Ni  0.89756580  0.58972067  0.43610461     1.34900
C2154       C  0.92433688  0.52131327  0.37156572     0.83300
O2155       O  0.86020945  0.57875162  0.37527995    -0.80800
O2156       O  0.85637322  0.57394773  0.42235155    -0.91000
C2157       C  0.89818075  0.58034218  0.30974894     0.82900
O2158       O  0.90895978  0.62951145  0.42172066    -0.69200
O2159       O  0.98605713  0.57944498  0.34527561    -0.88500
C2160       C  0.91778798  0.64269263  0.39801911     0.83700
C2161       C  0.84501168  0.57334524  0.39812768     1.05300
H2162       H  0.95554137  0.61387856  0.35863014     0.37100
O2163       O  0.94144532  0.59217430  0.36157646    -1.11200
O2164       O  0.93257343  0.53866875  0.39300794    -0.67800
Ni2165     Ni  0.94792580  0.58218715  0.39872054     1.26300
O2166       O  0.91832487  0.62874289  0.37607293    -0.68100
O2167       O  0.98878486  0.59028181  0.39132330    -0.80400
C2168       C  0.95502678  0.59458408  0.45518460     0.83100
O2169       O  0.95401628  0.57551083  0.43727179    -0.67500
Ni2170     Ni  0.94668957  0.57150092  0.33095211     1.27400
Ni2171     Ni  0.90095447  0.58575730  0.36757439     1.26100
H2172       H  0.89331827  0.55164628  0.40532550     0.37600
O2173       O  0.84165939  0.92412093  0.81249157    -0.82300
O2174       O  0.87294073  0.90912557  0.93662779    -0.67000
O2175       O  0.84331699  0.89307264  0.86086695    -1.13600
C2176       C  0.76573764  0.91178277  0.89710338     1.04600
O2177       O  0.82601454  0.87845749  0.95290536    -0.80200
O2178       O  0.77476152  0.85405335  0.92114345    -0.67800
Ni2179     Ni  0.87026761  0.91441291  0.83040446     1.34900
C2180       C  0.76876094  0.84220033  0.89687606     0.83300
O2181       O  0.89202798  0.89402123  0.89090969    -0.80800
O2182       O  0.90177624  0.90684058  0.84530822    -0.91000
C2183       C  0.85516123  0.89046333  0.95512887     0.82900
O2184       O  0.88905447  0.95425674  0.84628193    -0.69200
O2185       O  0.77458627  0.90817138  0.92135292    -0.88500
C2186       C  0.89628351  0.96398785  0.87114679     0.83700
C2187       C  0.90799559  0.89880994  0.86883716     1.05300
H2188       H  0.83592133  0.93321859  0.90538527     0.37100
O2189       O  0.82711166  0.91121708  0.90372890    -1.11200
O2190       O  0.78212199  0.85732028  0.87474421    -0.67800
Ni2191     Ni  0.80983957  0.90046711  0.86677897     1.26300
O2192       O  0.88794705  0.94613493  0.89242052    -0.68100
O2193       O  0.77715278  0.90898163  0.87415150    -0.80400
C2194       C  0.81306736  0.90621041  0.80841354     0.83100
O2195       O  0.79550507  0.89072536  0.82854556    -0.67500
Ni2196     Ni  0.80142129  0.89407572  0.93560052     1.27400
Ni2197     Ni  0.85968323  0.90253518  0.89817702     1.26100
H2198       H  0.83520126  0.87133804  0.85785510     0.37600
O2199       O  0.93486559  0.83210208  0.18667660    -0.82300
O2200       O  0.91991474  0.86226801  0.06326298    -0.67000
O2201       O  0.90310488  0.83345970  0.13912759    -1.13600
C2202       C  0.92057196  0.75475447  0.10394629     1.04600
O2203       O  0.88789556  0.81541554  0.04783717    -0.80200
O2204       O  0.86349869  0.76405476  0.07991212    -0.67800
Ni2205     Ni  0.92408425  0.86019173  0.16953357     1.34900
C2206       C  0.85162798  0.75864686  0.10422102     0.83300
O2207       O  0.90543548  0.88275755  0.10866761    -0.80800
O2208       O  0.91524490  0.89077859  0.15487963    -0.91000
C2209       C  0.90049485  0.84457332  0.04528084     0.82900
O2210       O  0.96407329  0.88029834  0.15360942    -0.69200
O2211       O  0.91767205  0.76383533  0.07951409    -0.88500
C2212       C  0.97421904  0.88613747  0.12874045     0.83700
C2213       C  0.90849251  0.89775343  0.13107161     1.05300
H2214       H  0.94282708  0.82474506  0.09503103     0.37100
O2215       O  0.92082825  0.81637336  0.09670379    -1.11200
O2216       O  0.86669414  0.77250011  0.12613528    -0.67800
Ni2217     Ni  0.90993946  0.79959422  0.13380637     1.26300
O2218       O  0.95672631  0.87676654  0.10730977    -0.68100
O2219       O  0.91760888  0.76629994  0.12675602    -0.80400
C2220       C  0.91635140  0.80395057  0.19194746     0.83100
O2221       O  0.90022322  0.78592702  0.17236174    -0.67500
Ni2222     Ni  0.90351420  0.79065467  0.06507573     1.27400
Ni2223     Ni  0.91298033  0.84954153  0.10177374     1.26100
H2224       H  0.88132506  0.82563147  0.14194328     0.37600
O2225       O  0.65726715  0.57417157  0.18660189    -0.82300
O2226       O  0.63004363  0.53876340  0.06253017    -0.67000
O2227       O  0.65973685  0.54608484  0.13754878    -1.13600
C2228       C  0.73732797  0.64452226  0.10549249     1.04600
O2229       O  0.67685560  0.55398650  0.04665255    -0.80200
O2230       O  0.72724302  0.57695320  0.07944844    -0.67800
Ni2231     Ni  0.63273394  0.53517217  0.16862287     1.34900
C2232       C  0.73382459  0.57167107  0.10384791     0.83300
O2233       O  0.61032577  0.00071727  0.10597727    -0.80800
O2234       O  0.60573981  0.99528672  0.15284851    -0.91000
C2235       C  0.64763289  0.53789004  0.04403198     0.82900
O2236       O  0.60728094  0.55049051  0.15503513    -0.69200
O2237       O  0.73006778  0.63262628  0.08101709    -0.88500
C2238       C  0.60292823  0.55914801  0.13126618     0.83700
C2239       C  0.59738116  0.98508789  0.12797330     1.05300
H2240       H  0.66747571  0.59681178  0.09508569     0.37100
O2241       O  0.67609902  0.58341180  0.09663226    -1.11200
O2242       O  0.72137080  0.57443512  0.12601281    -0.67800
Ni2243     Ni  0.69222367  0.58794879  0.13387041     1.26300
O2244       O  0.61580173  0.55750116  0.10894678    -0.68100
O2245       O  0.72430195  0.62990828  0.12805713    -0.80400
C2246       C  0.68589228  0.58702374  0.19191131     0.83100
O2247       O  0.70497255  0.59089655  0.17263293    -0.67500
Ni2248     Ni  0.70241286  0.59288995  0.06528545     1.27400
Ni2249     Ni  0.64326102  0.54206218  0.10064030     1.26100
H2250       H  0.66878054  0.53302295  0.13861755     0.37600
O2251       O  0.57339318  0.90431675  0.81020196    -0.82300
O2252       O  0.58311614  0.94914129  0.93424587    -0.67000
O2253       O  0.60160106  0.93648201  0.85939945    -1.13600
C2254       C  0.58205818  0.84019232  0.89815849     1.04600
O2255       O  0.61452267  0.93377306  0.95081605    -0.80200
O2256       O  0.63862252  0.90521640  0.92180146    -0.67800
Ni2257     Ni  0.58094136  0.94177778  0.82808305     1.34900
C2258       C  0.65157912  0.91247952  0.89796628     0.83300
O2259       O  0.59925783  0.98392802  0.88815238    -0.80800
O2260       O  0.58639296  0.98008894  0.84256921    -0.91000
C2261       C  0.60189309  0.95026670  0.95282460     0.82900
O2262       O  0.54045770  0.91945594  0.84294318    -0.69200
O2263       O  0.58355190  0.85203699  0.92217831    -0.88500
C2264       C  0.53018737  0.91795930  0.86746956     0.83700
C2265       C  0.59371351  0.99452521  0.86587316     1.05300
H2266       H  0.56022304  0.88859759  0.90351578     0.37100
O2267       O  0.58231594  0.90193586  0.90246029    -1.11200
O2268       O  0.63752968  0.91235762  0.87560691    -0.67800
Ni2269     Ni  0.59458372  0.89583436  0.86640735     1.26300
O2270       O  0.54756032  0.92767774  0.88901960    -0.68100
O2271       O  0.58670321  0.85494455  0.87500640    -0.80400
C2272       C  0.59099557  0.89300135  0.80800580     0.83100
O2273       O  0.60586025  0.89137554  0.82896695    -0.67500
Ni2274     Ni  0.59835099  0.89323254  0.93516796     1.27400
Ni2275     Ni  0.59093885  0.94308113  0.89613909     1.26100
H2276       H  0.62349940  0.95044296  0.85675019     0.37600
O2277       O  0.58373734  0.65220405  0.81400494    -0.82300
O2278       O  0.54769363  0.62075209  0.93856408    -0.67000
O2279       O  0.55506281  0.65142272  0.86383379    -1.13600
C2280       C  0.65426277  0.72767859  0.89704451     1.04600
O2281       O  0.56262912  0.66749422  0.95421495    -0.80200
O2282       O  0.59005104  0.72008089  0.92379449    -0.67800
Ni2283     Ni  0.54500002  0.62564910  0.83208805     1.34900
C2284       C  0.58238555  0.72591634  0.90009664     0.83300
O2285       O  0.50981531  0.60125572  0.89471041    -0.80800
O2286       O  0.50546317  0.59672944  0.84774916    -0.91000
C2287       C  0.54643127  0.63831829  0.95688803     0.82900
O2288       O  0.56197364  0.60121965  0.84458529    -0.69200
O2289       O  0.64331194  0.71819568  0.92166385    -0.88500
C2290       C  0.56948431  0.59528188  0.86827482     0.83700
C2291       C  0.99488319  0.58801761  0.87252580     1.05300
H2292       H  0.60591588  0.65826034  0.90511756     0.37100
O2293       O  0.59247647  0.66690579  0.90453910    -1.11200
O2294       O  0.58189564  0.71201263  0.87773252    -0.67800
Ni2295     Ni  0.59667863  0.68442926  0.86810731     1.26300
O2296       O  0.56658033  0.60667023  0.89113174    -0.68100
O2297       O  0.63848955  0.71699388  0.87448560    -0.80400
C2298       C  0.59575414  0.68095632  0.80988189     0.83100
O2299       O  0.59923626  0.69884793  0.83003851    -0.67500
Ni2300     Ni  0.60265621  0.69198887  0.93672091     1.27400
Ni2301     Ni  0.55109788  0.63413588  0.90036703     1.26100
H2302       H  0.54156715  0.66000061  0.86309131     0.37600
O2303       O  0.91446370  0.56278193  0.19169435    -0.82300
O2304       O  0.95643753  0.57276019  0.06596617    -0.67000
O2305       O  0.94486083  0.59058820  0.14135215    -1.13600
C2306       C  0.84708603  0.56944112  0.10511001     1.04600
O2307       O  0.93989638  0.60336097  0.04993512    -0.80200
O2308       O  0.91096558  0.62643489  0.08009202    -0.67800
Ni2309     Ni  0.95128997  0.57031515  0.17232666     1.34900
C2310       C  0.91888748  0.63947242  0.10381828     0.83300
O2311       O  0.99209561  0.58936409  0.11116711    -0.80800
O2312       O  0.98910297  0.57587083  0.15654114    -0.91000
C2313       C  0.95718146  0.59159317  0.04763925     0.82900
O2314       O  0.92858684  0.52996507  0.15763169    -0.69200
O2315       O  0.85831806  0.57075862  0.08075850    -0.88500
C2316       C  0.92694614  0.51961239  0.13313563     0.83700
C2317       C  0.50310885  0.58367305  0.13301746     1.05300
H2318       H  0.89622723  0.54865921  0.09812999     0.37100
O2319       O  0.90929769  0.57075328  0.09900864    -1.11200
O2320       O  0.91960699  0.62563575  0.12603264    -0.67800
Ni2321     Ni  0.90381842  0.58290323  0.13534455     1.26300
O2322       O  0.93635667  0.53689944  0.11144489    -0.68100
O2323       O  0.86252936  0.57449669  0.12784952    -0.80400
C2324       C  0.90252226  0.57981533  0.19390431     0.83100
O2325       O  0.90006567  0.59414104  0.17291785    -0.67500
Ni2326     Ni  0.89944526  0.58638117  0.06666908     1.27400
Ni2327     Ni  0.95084591  0.58015313  0.10429966     1.26100
H2328       H  0.95860398  0.61242188  0.14384185     0.37600
C2329       C  0.01399566  0.59610545  0.99186886    -0.14800
C2330       C  0.52384121  0.62546080  0.98026062     0.07400
C2331       C  0.51153337  0.64302923  0.99096887    -0.14800
C2332       C  0.48977158  0.63161583  0.01246844    -0.14800
C2333       C  0.98006522  0.60251538  0.02443313     0.07400
C2334       C  0.99263591  0.58491616  0.01412042    -0.14800
H2335       H  0.02311058  0.58206598  0.98401354     0.11400
H2336       H  0.51840223  0.66560025  0.98237659     0.11400
H2337       H  0.48079596  0.64590324  0.02000926     0.11400
H2338       H  0.98563347  0.56242580  0.02295975     0.11400
C2339       C  0.57908935  0.79513773  0.87250464    -0.14800
C2340       C  0.57614724  0.80810592  0.89753666     0.07400
C2341       C  0.57067059  0.79128786  0.92266689    -0.14800
C2342       C  0.57055963  0.76341965  0.92313214    -0.14800
C2343       C  0.57576483  0.75156052  0.89847024     0.07400
C2344       C  0.57881934  0.76708971  0.87296042    -0.14800
H2345       H  0.58322125  0.80739469  0.85276498     0.11400
H2346       H  0.56793423  0.80033656  0.94231547     0.11400
H2347       H  0.56782027  0.75186996  0.94308888     0.11400
H2348       H  0.58294124  0.75858593  0.85360110     0.11400
C2349       C  0.58895674  0.53472626  0.89303146    -0.14800
C2350       C  0.59363715  0.52404017  0.86732058     0.07400
C2351       C  0.59413433  0.53961147  0.84256290    -0.14800
C2352       C  0.58805111  0.56388993  0.84324298    -0.14800
C2353       C  0.58105462  0.57314151  0.86868161     0.07400
C2354       C  0.58265599  0.55900340  0.89370337    -0.14800
H2355       H  0.58833214  0.52315009  0.91249208     0.11400
H2356       H  0.59774910  0.03206305  0.82239434     0.11400
H2357       H  0.58757389  0.57457495  0.82356240     0.11400
H2358       H  0.57751263  0.56561827  0.91363267     0.11400
C2359       C  0.60379391  0.00260611  0.01153918    -0.14800
C2360       C  0.63479211  0.51592352  0.02031074     0.07400
C2361       C  0.65415009  0.50749769  0.00654725    -0.14800
C2362       C  0.64302488  0.98624510  0.98484466    -0.14800
C2363       C  0.61232990  0.97308660  0.97576212     0.07400
C2364       C  0.59273159  0.98162409  0.98908032    -0.14800
H2365       H  0.58827248  0.00851632  0.02189215     0.11400
H2366       H  0.67801361  0.51699084  0.01285447     0.11400
H2367       H  0.65871139  0.98024375  0.97493288     0.11400
H2368       H  0.56887970  0.97162885  0.98255430     0.11400
C2369       C  0.56510856  0.56922965  0.10520167    -0.14800
C2370       C  0.58112847  0.57086160  0.13000697     0.07400
C2371       C  0.57411856  0.58124662  0.15468532    -0.14800
C2372       C  0.55004975  0.58759783  0.15513618    -0.14800
C2373       C  0.53256247  0.58386568  0.13088745     0.07400
C2374       C  0.54097606  0.57572620  0.10563610    -0.14800
H2375       H  0.57002140  0.56125197  0.08591512     0.11400
H2376       H  0.58643952  0.58324527  0.17402657     0.11400
H2377       H  0.04420494  0.59408191  0.17480089     0.11400
H2378       H  0.52763627  0.57240771  0.08668733     0.11400
C2379       C  0.77557815  0.56921213  0.13126086    -0.14800
C2380       C  0.75879726  0.56406060  0.10618391     0.07400
C2381       C  0.76906556  0.55604075  0.08201011    -0.14800
C2382       C  0.79677398  0.55575561  0.08222582    -0.14800
C2383       C  0.81495145  0.56345986  0.10663876     0.07400
C2384       C  0.80343914  0.56894043  0.13148147    -0.14800
H2385       H  0.76830296  0.57549112  0.15023118     0.11400
H2386       H  0.75650864  0.55158366  0.06241691     0.11400
H2387       H  0.80468795  0.55102246  0.06280134     0.11400
H2388       H  0.81681819  0.57486368  0.15068485     0.11400
C2389       C  0.52057033  0.92321114  0.10063191    -0.14800
C2390       C  0.00793314  0.90596912  0.12526693     0.07400
C2391       C  0.52744315  0.91077654  0.14832781    -0.14800
C2392       C  0.55787035  0.93482075  0.14811503    -0.14800
C2393       C  0.56948631  0.95451744  0.12479921     0.07400
C2394       C  0.55122756  0.94736465  0.10038686    -0.14800
H2395       H  0.00618517  0.91970387  0.08240177     0.11400
H2396       H  0.51861547  0.89725504  0.16735217     0.11400
H2397       H  0.57156920  0.93935039  0.16701067     0.11400
H2398       H  0.55966347  0.96202946  0.08197793     0.11400
C2399       C  0.80862099  0.71607290  0.13176474    -0.14800
C2400       C  0.81925386  0.73339673  0.10683894     0.07400
C2401       C  0.80036628  0.72327197  0.08287901    -0.14800
C2402       C  0.77273559  0.69527051  0.08309849    -0.14800
C2403       C  0.76322583  0.67666091  0.10730082     0.07400
C2404       C  0.78079860  0.68789537  0.13199302    -0.14800
H2405       H  0.82278471  0.72319304  0.15051158     0.11400
H2406       H  0.80775838  0.73623425  0.06342975     0.11400
H2407       H  0.75951732  0.68752390  0.06383653     0.11400
H2408       H  0.77408624  0.67406135  0.15096037     0.11400
C2409       C  0.90066927  0.93763107  0.15420518    -0.14800
C2410       C  0.90596056  0.92585018  0.12959015     0.07400
C2411       C  0.91318077  0.94341953  0.10476272    -0.14800
C2412       C  0.91796719  0.97343507  0.10527276    -0.14800
C2413       C  0.91535396  0.98617486  0.13057407     0.07400
C2414       C  0.90514327  0.96734110  0.15466783    -0.14800
H2415       H  0.89463594  0.92445876  0.17356089     0.11400
H2416       H  0.91733329  0.93486072  0.08544911     0.11400
H2417       H  0.92555237  0.48719281  0.08626376     0.11400
H2418       H  0.90236340  0.97614200  0.17444603     0.11400
C2419       C  0.92033826  0.71104625  0.13047150    -0.14800
C2420       C  0.92610655  0.72832255  0.10556840     0.07400
C2421       C  0.93390153  0.71804767  0.08125646    -0.14800
C2422       C  0.93361195  0.69007673  0.08124559    -0.14800
C2423       C  0.92568911  0.67173915  0.10557507     0.07400
C2424       C  0.92017846  0.68302665  0.13047898    -0.14800
H2425       H  0.91421141  0.71825798  0.14956183     0.11400
H2426       H  0.93886676  0.73093906  0.06180445     0.11400
H2427       H  0.93825937  0.68213226  0.06180128     0.11400
H2428       H  0.91380205  0.66930393  0.14951379     0.11400
C2429       C  0.72603532  0.79864268  0.86992050    -0.14800
C2430       C  0.74342130  0.80976350  0.89471451     0.07400
C2431       C  0.73333307  0.79122635  0.91896161    -0.14800
C2432       C  0.70531702  0.76353772  0.91912342    -0.14800
C2433       C  0.68657321  0.75358859  0.89502580     0.07400
C2434       C  0.69784495  0.77080006  0.87007920    -0.14800
H2435       H  0.73311924  0.81242395  0.85092323     0.11400
H2436       H  0.74632970  0.79892867  0.93834630     0.11400
H2437       H  0.69765467  0.75070437  0.93861342     0.11400
H2438       H  0.68405160  0.76375958  0.85111325     0.11400
C2439       C  0.93485217  0.00969584  0.89886735    -0.14800
C2440       C  0.91656962  0.99759971  0.87473155     0.07400
C2441       C  0.92077993  0.51751617  0.85213134    -0.14800
C2442       C  0.94464322  0.54804392  0.85247830    -0.14800
C2443       C  0.96483311  0.55936648  0.87545512     0.07400
C2444       C  0.95878229  0.54041018  0.89925710    -0.14800
H2445       H  0.93218371  0.99493053  0.91658624     0.11400
H2446       H  0.90666463  0.50905789  0.83342273     0.11400
H2447       H  0.94848514  0.56221328  0.83400680     0.11400
H2448       H  0.47401969  0.54851566  0.91728876     0.11400
C2449       C  0.70123929  0.92453853  0.92102898    -0.14800
C2450       C  0.68391780  0.91921541  0.89630708     0.07400
C2451       C  0.69608779  0.91580977  0.87094081    -0.14800
C2452       C  0.72378850  0.91522315  0.87076639    -0.14800
C2453       C  0.73981109  0.91812231  0.89595201     0.07400
C2454       C  0.72881698  0.92401781  0.92085327    -0.14800
H2455       H  0.69269293  0.92756244  0.94087582     0.11400
H2456       H  0.68324294  0.91158239  0.85154462     0.11400
H2457       H  0.73168052  0.91076043  0.85119653     0.11400
H2458       H  0.74075501  0.92680052  0.94057818     0.11400
C2459       C  0.94715182  0.88846921  0.84739326    -0.14800
C2460       C  0.93638368  0.89697213  0.87081213     0.07400
C2461       C  0.95502185  0.90778017  0.89489635    -0.14800
C2462       C  0.98502821  0.91253389  0.89466769    -0.14800
C2463       C  0.49672234  0.90632185  0.87039871     0.07400
C2464       C  0.97693964  0.89281559  0.84727859    -0.14800
H2465       H  0.93303481  0.87979453  0.82870230     0.11400
H2466       H  0.94723006  0.91467358  0.91316300     0.11400
H2467       H  0.49966813  0.92296125  0.91278736     0.11400
H2468       H  0.98508042  0.88731599  0.82839944     0.11400
C2469       C  0.84846512  0.85126478  0.99118273    -0.14800
C2470       C  0.86766554  0.88006218  0.97858933     0.07400
C2471       C  0.89826527  0.89768539  0.98833247    -0.14800
C2472       C  0.90914035  0.88665535  0.01035617    -0.14800
C2473       C  0.88990493  0.85740438  0.02232311     0.07400
C2474       C  0.85949978  0.83998541  0.01242890    -0.14800
H2475       H  0.82484686  0.83699823  0.98420840     0.11400
H2476       H  0.91362018  0.91999645  0.97911109     0.11400
H2477       H  0.93266283  0.90067372  0.01766137     0.11400
H2478       H  0.84396626  0.81757971  0.02140378     0.11400
C2479       C  0.90364347  0.61001575  0.26577991    -0.14800
C2480       C  0.88868155  0.58211447  0.28079079     0.07400
C2481       C  0.87182984  0.55449552  0.26597371    -0.14800
C2482       C  0.87320658  0.55428376  0.23678695    -0.14800
C2483       C  0.89122924  0.58171981  0.22186035     0.07400
C2484       C  0.90491687  0.60981190  0.23633205    -0.14800
H2485       H  0.91726280  0.63152432  0.27678597     0.11400
H2486       H  0.86029935  0.53270196  0.27711959     0.11400
H2487       H  0.86267614  0.53236358  0.22606607     0.11400
H2488       H  0.91940084  0.63118417  0.22523732     0.11400
C2489       C  0.62026569  0.67894833  0.73694121    -0.14800
C2490       C  0.60455116  0.69109263  0.72195830     0.07400
C2491       C  0.59291120  0.70732909  0.73659032    -0.14800
C2492       C  0.59363067  0.70790422  0.76612797    -0.14800
C2493       C  0.60598645  0.69224276  0.78104007     0.07400
C2494       C  0.62099923  0.67954048  0.76615457    -0.14800
H2495       H  0.62935524  0.66627531  0.72613298     0.11400
H2496       H  0.58033409  0.71652408  0.72547704     0.11400
H2497       H  0.58154085  0.71747624  0.77717580     0.11400
H2498       H  0.63057733  0.66724996  0.77717982     0.11400
C2499       C  0.48975993  0.58694365  0.48902001    -0.14800
C2500       C  0.97760656  0.60500733  0.47860698     0.07400
C2501       C  0.98754369  0.63399968  0.49057250    -0.14800
C2502       C  0.00943141  0.64496790  0.51204610    -0.14800
C2503       C  0.52152841  0.62699586  0.52265260     0.07400
C2504       C  0.51122548  0.59767326  0.51119146    -0.14800
H2505       H  0.48244110  0.56448015  0.48023270     0.11400
H2506       H  0.97875115  0.64855725  0.48299721     0.11400
H2507       H  0.01661357  0.66749388  0.52064457     0.11400
H2508       H  0.52010758  0.58331408  0.51907421     0.11400
C2509       C  0.56443251  0.86329685  0.73636947    -0.14800
C2510       C  0.59162658  0.88117335  0.72111307     0.07400
C2511       C  0.61998314  0.89567535  0.73548609    -0.14800
C2512       C  0.62053604  0.89585014  0.76499046    -0.14800
C2513       C  0.59273694  0.88146880  0.78011571     0.07400
C2514       C  0.56499216  0.86339876  0.76561163    -0.14800
H2515       H  0.54231716  0.85200185  0.72572789     0.11400
H2516       H  0.64120727  0.90990848  0.72413480     0.11400
H2517       H  0.64215953  0.91027444  0.77573641     0.11400
H2518       H  0.54328355  0.85224245  0.77683751     0.11400
C2519       C  0.57712991  0.79402319  0.63025937    -0.14800
C2520       C  0.57355124  0.80675629  0.60507694     0.07400
C2521       C  0.56698920  0.78952758  0.58030627    -0.14800
C2522       C  0.56668825  0.76159021  0.58019910    -0.14800
C2523       C  0.57274181  0.75005966  0.60487884     0.07400
C2524       C  0.57663814  0.76585750  0.63016792    -0.14800
H2525       H  0.58202416  0.80658025  0.64975513     0.11400
H2526       H  0.56364254  0.79834557  0.56059699     0.11400
H2527       H  0.56323550  0.74975693  0.56044495     0.11400
H2528       H  0.58140018  0.75754931  0.64952608     0.11400
C2529       C  0.59242336  0.53724280  0.65704857    -0.14800
C2530       C  0.59119166  0.52218381  0.63200504     0.07400
C2531       C  0.58706819  0.53405092  0.60652516    -0.14800
C2532       C  0.58184245  0.55905675  0.60642577    -0.14800
C2533       C  0.58093366  0.57271291  0.63179610     0.07400
C2534       C  0.58755331  0.56224548  0.65693874    -0.14800
H2535       H  0.59593133  0.52890803  0.67697531     0.11400
H2536       H  0.58583355  0.02272623  0.58679581     0.11400
H2537       H  0.57694203  0.56660590  0.58670267     0.11400
H2538       H  0.58748388  0.57238845  0.67688807     0.11400
C2539       C  0.67935494  0.61074962  0.26421542    -0.14800
C2540       C  0.69467665  0.59880782  0.28011448     0.07400
C2541       C  0.71334477  0.58948996  0.26622518    -0.14800
C2542       C  0.71374510  0.58894943  0.23667391    -0.14800
C2543       C  0.69551170  0.59776335  0.22097644     0.07400
C2544       C  0.67978190  0.61024918  0.23503972    -0.14800
H2545       H  0.66484765  0.61811424  0.27438487     0.11400
H2546       H  0.72506609  0.57983792  0.27804787     0.11400
H2547       H  0.72570781  0.57882991  0.22630272     0.11400
H2548       H  0.66552564  0.61715626  0.22345100     0.11400
C2549       C  0.65372015  0.50959732  0.49534657    -0.14800
C2550       C  0.63360743  0.51660388  0.48055096     0.07400
C2551       C  0.60228766  0.00153009  0.48827682    -0.14800
C2552       C  0.59148295  0.98004475  0.51046450    -0.14800
C2553       C  0.61165016  0.97258784  0.52456092     0.07400
C2554       C  0.64278911  0.98750800  0.51666349    -0.14800
H2555       H  0.67794060  0.52060422  0.48993838     0.11400
H2556       H  0.58623870  0.00645809  0.47729446     0.11400
H2557       H  0.56733336  0.96876839  0.51617415     0.11400
H2558       H  0.65887831  0.98238649  0.52733821     0.11400
C2559       C  0.57003367  0.58284067  0.34605481    -0.14800
C2560       C  0.57864402  0.57392429  0.37100301     0.07400
C2561       C  0.56421745  0.57392048  0.39620502    -0.14800
C2562       C  0.54000819  0.58036917  0.39598624    -0.14800
C2563       C  0.52985522  0.58679901  0.37055765     0.07400
C2564       C  0.54590938  0.58910441  0.34582256    -0.14800
H2565       H  0.58105234  0.58367852  0.32632429     0.11400
H2566       H  0.57044446  0.56730062  0.41576866     0.11400
H2567       H  0.02795797  0.57831323  0.41539224     0.11400
H2568       H  0.53885534  0.59430577  0.32596488     0.11400
C2569       C  0.77213284  0.57081949  0.37199639    -0.14800
C2570       C  0.75691195  0.56814369  0.39744908     0.07400
C2571       C  0.76878031  0.56287676  0.42230070    -0.14800
C2572       C  0.79643719  0.56260701  0.42210267    -0.14800
C2573       C  0.81302791  0.56770594  0.39704785     0.07400
C2574       C  0.80004084  0.57069570  0.37180377    -0.14800
H2575       H  0.76354127  0.57495503  0.35250601     0.11400
H2576       H  0.75745014  0.56042929  0.44222076     0.11400
H2577       H  0.80553386  0.55992286  0.44192378     0.11400
H2578       H  0.81218310  0.57455438  0.35213121     0.11400
C2579       C  0.94128746  0.80814975  0.26637432    -0.14800
C2580       C  0.91296398  0.79499760  0.28048148     0.07400
C2581       C  0.88556582  0.77792550  0.26503143    -0.14800
C2582       C  0.88650840  0.77725933  0.23551345    -0.14800
C2583       C  0.91485995  0.79366906  0.22137963     0.07400
C2584       C  0.94222926  0.80743178  0.23719273    -0.14800
H2585       H  0.96270037  0.82149438  0.27779714     0.11400
H2586       H  0.86342577  0.76795682  0.27544377     0.11400
H2587       H  0.86507272  0.76681840  0.22379701     0.11400
H2588       H  0.96437985  0.82023424  0.22684563     0.11400
C2589       C  0.91353156  0.94556710  0.39942436    -0.14800
C2590       C  0.90215001  0.92711666  0.37534133     0.07400
C2591       C  0.89364534  0.93836037  0.35199529    -0.14800
C2592       C  0.89862503  0.96826199  0.35180434    -0.14800
C2593       C  0.91256846  0.98780822  0.37485913     0.07400
C2594       C  0.91880994  0.97578454  0.39915597    -0.14800
H2595       H  0.92047175  0.93747463  0.41766089     0.11400
H2596       H  0.88458359  0.92453699  0.33327135     0.11400
H2597       H  0.89321279  0.47669234  0.33288871     0.11400
H2598       H  0.92960160  0.99028142  0.41721138     0.11400
C2599       C  0.93219690  0.69262534  0.42069824    -0.14800
C2600       C  0.92601812  0.67534929  0.39606294     0.07400
C2601       C  0.92352537  0.68817606  0.37052760    -0.14800
C2602       C  0.92394510  0.71632883  0.37020690    -0.14800
C2603       C  0.92695017  0.73200658  0.39542033     0.07400
C2604       C  0.93278428  0.72065092  0.42036531    -0.14800
H2605       H  0.93484707  0.68365442  0.44061739     0.11400
H2606       H  0.91896712  0.67544632  0.35116447     0.11400
H2607       H  0.91978444  0.72466327  0.35057875     0.11400
H2608       H  0.93593002  0.73245927  0.44008156     0.11400
C2609       C  0.51762455  0.92389151  0.39890992    -0.14800
C2610       C  0.00365212  0.90854788  0.37384385     0.07400
C2611       C  0.52189889  0.91570190  0.34957299    -0.14800
C2612       C  0.55232821  0.93978564  0.34952892    -0.14800
C2613       C  0.56539632  0.95730717  0.37378599     0.07400
C2614       C  0.54832254  0.94809563  0.39888876    -0.14800
H2615       H  0.00429121  0.91867280  0.41801920     0.11400
H2616       H  0.51213657  0.90386675  0.33001896     0.11400
H2617       H  0.56495157  0.94591890  0.32994756     0.11400
H2618       H  0.55780534  0.96106722  0.41798908     0.11400
C2619       C  0.80436947  0.71885818  0.36889575    -0.14800
C2620       C  0.81638406  0.73491807  0.39413466     0.07400
C2621       C  0.79811921  0.72448451  0.41839279    -0.14800
C2622       C  0.76997493  0.69707568  0.41821542    -0.14800
C2623       C  0.75928113  0.67924980  0.39377049     0.07400
C2624       C  0.77600416  0.69116553  0.36872149    -0.14800
H2625       H  0.81782940  0.72646002  0.34979967     0.11400
H2626       H  0.80639299  0.73662400  0.43805942     0.11400
H2627       H  0.75746671  0.68900568  0.43777384     0.11400
H2628       H  0.76824729  0.67815332  0.34944818     0.11400
C2629       C  0.78619657  0.87554285  0.73589063    -0.14800
C2630       C  0.80202922  0.90310672  0.72044284     0.07400
C2631       C  0.81427717  0.93122766  0.73456879    -0.14800
C2632       C  0.81400825  0.93196154  0.76377984    -0.14800
C2633       C  0.80160231  0.90458093  0.77949550     0.07400
C2634       C  0.78597829  0.87628033  0.76539533    -0.14800
H2635       H  0.77699194  0.85358619  0.72542039     0.11400
H2636       H  0.82667364  0.95274212  0.72309254     0.11400
H2637       H  0.82627270  0.95405072  0.77415754     0.11400
H2638       H  0.77669263  0.85487912  0.77706477     0.11400
C2639       C  0.72217470  0.79882959  0.63250780    -0.14800
C2640       C  0.74030656  0.80827959  0.60808913     0.07400
C2641       C  0.73129295  0.78829685  0.58512392    -0.14800
C2642       C  0.70342320  0.76056856  0.58558754    -0.14800
C2643       C  0.68383493  0.75228536  0.60897680     0.07400
C2644       C  0.69407075  0.77102604  0.63293338    -0.14800
H2645       H  0.72855847  0.81391799  0.65047247     0.11400
H2646       H  0.74503629  0.79487850  0.56617712     0.11400
H2647       H  0.69646431  0.74640334  0.56696822     0.11400
H2648       H  0.67950062  0.76525684  0.65127900     0.11400
C2649       C  0.92265898  0.51203045  0.65057520    -0.14800
C2650       C  0.91661985  0.99361218  0.62667790     0.07400
C2651       C  0.93313085  0.00721727  0.60191201    -0.14800
C2652       C  0.95699368  0.53809428  0.60190158    -0.14800
C2653       C  0.96459336  0.55558500  0.62664819     0.07400
C2654       C  0.94630112  0.54258204  0.65055429    -0.14800
H2655       H  0.91000197  0.50241607  0.66985654     0.11400
H2656       H  0.92895685  0.99358191  0.58318714     0.11400
H2657       H  0.47083326  0.54749936  0.58317440     0.11400
H2658       H  0.95136704  0.55554287  0.66983339     0.11400
C2659       C  0.72159694  0.91310853  0.63104385    -0.14800
C2660       C  0.73794496  0.91730045  0.60594508     0.07400
C2661       C  0.72734074  0.92459827  0.58130415    -0.14800
C2662       C  0.69972120  0.92501919  0.58115326    -0.14800
C2663       C  0.68202096  0.91828968  0.60565765     0.07400
C2664       C  0.69385551  0.91365586  0.63090433    -0.14800
H2665       H  0.72918332  0.90752592  0.65040301     0.11400
H2666       H  0.73956794  0.92844934  0.56168050     0.11400
H2667       H  0.69140561  0.92903652  0.56144007     0.11400
H2668       H  0.68065557  0.90831488  0.65011274     0.11400
C2669       C  0.95144307  0.90261492  0.60177050    -0.14800
C2670       C  0.93261893  0.89078666  0.62564469     0.07400
C2671       C  0.94352855  0.88175071  0.64889499    -0.14800
C2672       C  0.97368426  0.88718166  0.64940656    -0.14800
C2673       C  0.49373455  0.90213491  0.62679604     0.07400
C2674       C  0.98186400  0.90835602  0.60237130    -0.14800
H2675       H  0.94356771  0.90981333  0.58355452     0.11400
H2676       H  0.92934185  0.87220625  0.66741274     0.11400
H2677       H  0.98187008  0.88148727  0.66833812     0.11400
H2678       H  0.49665151  0.91967370  0.58453437     0.11400
C2679       C  0.84526031  0.84736447  0.51194762    -0.14800
C2680       C  0.86254118  0.87778005  0.52156252     0.07400
C2681       C  0.89171368  0.89717288  0.50967452    -0.14800
C2682       C  0.90311677  0.88638739  0.48831730    -0.14800
C2683       C  0.88595694  0.85572817  0.47909316     0.07400
C2684       C  0.85694186  0.83639712  0.49127387    -0.14800
H2685       H  0.82283125  0.83177122  0.52083096     0.11400
H2686       H  0.90552039  0.92072997  0.51668844     0.11400
H2687       H  0.92545753  0.90188599  0.47925311     0.11400
H2688       H  0.84294952  0.81275394  0.48453017     0.11400
loop_ 
_geom_bond_atom_site_label_1 
_geom_bond_atom_site_label_2 
_geom_bond_distance 
_geom_bond_site_symmetry_2 
_ccdc_geom_bond_type 
O1           Ni7   1.942       .  S
O1           C22   1.275       .  A
O2          Ni25   1.925       .  S
O2           C11   1.268       .  A
O3           Ni7   1.895       .  S
O3          Ni25   1.909       .  S
O3          Ni19   1.902       .  S
O3           H26   0.966       .  S
C4           O21   1.273       .  A
C4           O13   1.277       .  A
C4          C654   1.476       .  S
O5          Ni24   1.925       .  S
O5           C11   1.269       .  A
O6          Ni24   1.896       .  S
O6            C8   1.268       .  A
Ni7          O10   1.924       .  S
Ni7          O12   1.904       .  S
C8           O18   1.274       .  A
C8          C634   1.481       .  S
O9          Ni25   1.926       .  S
O9           C15   1.280       .  A
O10          C15   1.281       .  A
C11         C614   1.475       .  S
O12          C14   1.269       .  A
O13         Ni24   1.924       .  S
C14          O20   1.269       .  A
C14         C624   1.475       .  S
C15         C644   1.484       .  S
H16          O17   0.966       .  S
O17         Ni25   1.915       .  S
O17         Ni19   1.913       .  S
O17         Ni24   1.898       .  S
O18         Ni19   1.937       .  S
Ni19         O23   1.911       .  S
Ni19         O21   1.911       .  S
O20         Ni25   1.921       .  S
C22          O23   1.268       .  A
C22         C664   1.486       .  S
O27         Ni33   1.938       .  S
O27          C48   1.274       .  A
O28         Ni51   1.928       .  S
O28          C37   1.269       .  A
O29         Ni33   1.894       .  S
O29         Ni51   1.911       .  S
O29         Ni45   1.901       .  S
O29          H52   0.966       .  S
C30          O47   1.271       .  A
C30          O39   1.276       .  A
C30         C574   1.476       .  S
O31         Ni50   1.924       .  S
O31          C37   1.269       .  A
O32         Ni50   1.894       .  S
O32          C34   1.267       .  A
Ni33         O36   1.921       .  S
Ni33         O38   1.901       .  S
C34          O44   1.275       .  A
C34         C594   1.483       .  S
O35         Ni51   1.925       .  S
O35          C41   1.280       .  A
O36          C41   1.280       .  A
C37         C564   1.478       .  S
O38          C40   1.269       .  A
O39         Ni50   1.923       .  S
C40          O46   1.272       .  A
C40         C604   1.483       .  S
C41         C587   1.483       .  S
H42          O43   0.966       .  S
O43         Ni51   1.917       .  S
O43         Ni45   1.918       .  S
O43         Ni50   1.901       .  S
O44         Ni45   1.941       .  S
Ni45         O49   1.913       .  S
Ni45         O47   1.910       .  S
O46         Ni51   1.931       .  S
C48          O49   1.269       .  A
C48         C667   1.489       .  S
O53         Ni59   1.935       .  S
O53          C74   1.275       .  A
O54         Ni77   1.930       .  S
O54          C63   1.270       .  A
O55         Ni59   1.890       .  S
O55         Ni77   1.910       .  S
O55         Ni71   1.909       .  S
O55          H78   0.966       .  S
C56          O73   1.277       .  A
C56          O65   1.279       .  A
C56         C597   1.482       .  S
O57         Ni76   1.920       .  S
O57          C63   1.268       .  A
O58         Ni76   1.894       .  S
O58          C60   1.266       .  A
Ni59         O62   1.922       .  S
Ni59         O64   1.901       .  S
C60          O70   1.273       .  A
C60         C544   1.481       .  S
O61         Ni77   1.927       .  S
O61          C67   1.280       .  A
O62          C67   1.280       .  A
C63         C524   1.478       .  S
O64          C66   1.269       .  A
O65        Ni748   1.922       .  S
C66          O72   1.272       .  A
C66         C554   1.477       .  S
C67         C607   1.485       .  S
H68          O69   0.966       .  S
O69         Ni77   1.913       .  S
O69         Ni71   1.904       .  S
O69         Ni76   1.890       .  S
O70         Ni71   1.935       .  S
Ni71         O75   1.911       .  S
Ni71        O745   1.919       .  S
O72         Ni77   1.924       .  S
O73        Ni743   1.919       .  S
C74          O75   1.269       .  A
C74         C534   1.486       .  S
Ni76        O737   1.922   1_545  S
O79         Ni85   1.935       .  S
O79         C100   1.273       .  A
O80        Ni103   1.921       .  S
O80          C89   1.268       .  A
O81         Ni85   1.894       .  S
O81        Ni103   1.906       .  S
O81         Ni97   1.905       .  S
O81         H104   0.966       .  S
C82          O99   1.274       .  A
C82          O91   1.279       .  A
C82        C1186   1.481       .  S
O83        Ni102   1.929       .  S
O83          C89   1.270       .  A
O84        Ni102   1.898       .  S
O84          C86   1.267       .  A
Ni85         O88   1.923       .  S
Ni85         O90   1.905       .  S
C86          O96   1.273       .  A
C86         C657   1.482   1_455  S
O87        Ni103   1.925       .  S
O87          C93   1.279       .  A
O88          C93   1.280       .  A
C89         C494   1.475       .  S
O90          C92   1.269       .  A
O91        Ni102   1.931       .  S
C92          O98   1.272       .  A
C92         C647   1.480       .  S
C93         C504   1.484       .  S
H94          O95   0.966       .  S
O95        Ni103   1.911       .  S
O95         Ni97   1.913       .  S
O95        Ni102   1.900       .  S
O96         Ni97   1.937       .  S
Ni97        O101   1.914       .  S
Ni97         O99   1.910       .  S
O98        Ni103   1.926       .  S
C100        O101   1.268       .  A
C100        C537   1.480       .  S
O105       Ni111   1.935       .  S
O105        C126   1.274       .  A
O106       Ni129   1.926       .  S
O106        C115   1.269       .  A
O107       Ni111   1.893       .  S
O107       Ni129   1.906       .  S
O107       Ni123   1.902       .  S
O107        H130   0.966       .  S
C108       O1469   1.273       .  A
C108       O1461   1.277       .  A
C108        C637   1.478       .  S
O109       Ni128   1.925       .  S
O109        C115   1.270       .  A
O110       Ni128   1.895       .  S
O110        C112   1.268       .  A
Ni111       O114   1.920       .  S
Ni111       O116   1.906       .  S
C112        O122   1.276       .  A
C112        C517   1.486       .  S
O113       Ni129   1.926       .  S
O113        C119   1.280       .  A
O114        C119   1.280       .  A
C115        C474   1.477       .  S
O116        C118   1.269       .  A
O117       Ni128   1.922       .  S
O117       C1452   1.277   1_455  A
C118        O124   1.271       .  A
C118        C507   1.480       .  S
C119        C627   1.480       .  S
H120        O121   0.966       .  S
O121       Ni129   1.914       .  S
O121       Ni123   1.912       .  S
O121       Ni128   1.895       .  S
O122       Ni123   1.942       .  S
Ni123       O127   1.911       .  S
Ni123       O125   1.913       .  S
O124       Ni129   1.926       .  S
O125       C1452   1.273   1_455  A
C126        O127   1.268       .  A
C126        C487   1.482       .  S
O131       Ni137   1.929       .  S
O131        C152   1.273       .  A
O132       Ni155   1.926       .  S
O132        C141   1.269       .  A
O133       Ni137   1.891       .  S
O133       Ni155   1.907       .  S
O133       Ni149   1.906       .  S
O133        H156   0.966       .  S
C134       O1495   1.275       .  A
C134       O1487   1.280       .  A
C134        C547   1.478   1_655  S
O135       Ni154   1.923       .  S
O135        C141   1.268       .  A
O136       Ni154   1.892       .  S
O136        C138   1.266       .  A
Ni137       O140   1.915       .  S
Ni137       O142   1.904       .  S
C138        O148   1.274       .  A
C138       C1249   1.482   1_545  S
O139       Ni155   1.926       .  S
O139        C145   1.280       .  A
O140        C145   1.278       .  A
C141        C464   1.474       .  S
O142        C144   1.269       .  A
O143       Ni154   1.927       .  S
O143       C1478   1.280       .  A
C144        O150   1.271       .  A
C144        C584   1.479       .  S
C145        C557   1.481       .  S
H146        O147   0.966       .  S
O147       Ni155   1.910       .  S
O147       Ni149   1.906       .  S
O147       Ni154   1.891       .  S
O148       Ni149   1.940       .  S
Ni149       O153   1.915       .  S
Ni149       O151   1.910       .  S
O150       Ni155   1.925       .  S
O151       C1478   1.275       .  A
C152        O153   1.269       .  A
C152        C484   1.483       .  S
O157       Ni163   1.922       .  S
O157        C178   1.267       .  A
O158       Ni181   1.920       .  S
O158        C167   1.269       .  A
O159       Ni163   1.905       .  S
O159       Ni181   1.915       .  S
O159       Ni175   1.912       .  S
O159        H182   0.966       .  S
C160        O177   1.278       .  A
C160        O169   1.279       .  A
C160        C437   1.484       .  S
O161       Ni180   1.938       .  S
O161        C167   1.274       .  A
O162       Ni180   1.902       .  S
O162        C164   1.269       .  A
Ni163       O166   1.928       .  S
Ni163       O168   1.894       .  S
C164        O174   1.275       .  A
C164        C414   1.485       .  S
O165       Ni181   1.904       .  S
O165        C171   1.272       .  A
O166        C171   1.277       .  A
C167        C454   1.492       .  S
O168        C170   1.266       .  A
O169       Ni180   1.924       .  S
C170        O176   1.273       .  A
C170        C424   1.481       .  S
C171        C444   1.472       .  S
H172        O173   0.966       .  S
O173       Ni181   1.907       .  S
O173       Ni175   1.916       .  S
O173       Ni180   1.897       .  S
O174       Ni175   1.935       .  S
Ni175       O179   1.930       .  S
Ni175       O177   1.921       .  S
O176       Ni181   1.939       .  S
C178        O179   1.270       .  A
C178        C617   1.477       .  S
O183       Ni189   1.919       .  S
O183        C204   1.267       .  A
O184       Ni207   1.915       .  S
O184        C193   1.268       .  A
O185       Ni189   1.899       .  S
O185       Ni207   1.912       .  S
O185       Ni201   1.913       .  S
O185        H208   0.966       .  S
C186        O203   1.280       .  A
C186        O195   1.281       .  A
C186        C404   1.486       .  S
O187       Ni206   1.944       .  S
O187        C193   1.276       .  A
O188       Ni206   1.903       .  S
O188        C190   1.270       .  A
Ni189       O192   1.923       .  S
Ni189       O194   1.894       .  S
C190        O200   1.273       .  A
C190        C384   1.481       .  S
O191       Ni207   1.915       .  S
O191        C197   1.275       .  A
O192        C197   1.278       .  A
C193        C457   1.489       .  S
O194        C196   1.266       .  A
O195       Ni206   1.929       .  S
C196        O202   1.271       .  A
C196        C374   1.478       .  S
C197        C394   1.478       .  S
H198        O199   0.966       .  S
O199       Ni207   1.909       .  S
O199       Ni201   1.914       .  S
O199       Ni206   1.894       .  S
O200       Ni201   1.929       .  S
Ni201       O205   1.935       .  S
Ni201       O203   1.924       .  S
O202       Ni207   1.933       .  S
C204        O205   1.271       .  A
C204        C567   1.481       .  S
O209       Ni215   1.919       .  S
O209        C230   1.268       .  A
O210       Ni233   1.910       .  S
O210        C219   1.266       .  A
O211       Ni215   1.895       .  S
O211       Ni233   1.908       .  S
O211       Ni227   1.915       .  S
O211        H234   0.966       .  S
C212        O229   1.280       .  A
C212        O221   1.280       .  A
C212        C387   1.482       .  S
O213       Ni232   1.937       .  S
O213        C219   1.275       .  A
O214       Ni232   1.902       .  S
O214        C216   1.269       .  A
Ni215       O220   1.896       .  S
Ni215       O890   1.921   1_545  S
C216        O226   1.273       .  A
C216        C364   1.482       .  S
O217       Ni905   1.912       .  S
O217        C223   1.273       .  A
O218       Ni887   1.921       .  S
O218        C223   1.278       .  A
C219        C344   1.486       .  S
O220        C222   1.267       .  A
O221       Ni232   1.925       .  S
C222        O228   1.272       .  A
C222        C354   1.477       .  S
C223        C377   1.477       .  S
H224        O225   0.966       .  S
O225       Ni233   1.905       .  S
O225       Ni227   1.913       .  S
O225       Ni232   1.892       .  S
O226       Ni227   1.931       .  S
Ni227       O231   1.934       .  S
Ni227       O229   1.924       .  S
O228       Ni233   1.930       .  S
C230        O231   1.271       .  A
C230        C527   1.478       .  S
Ni233       O889   1.912       .  S
O235       Ni241   1.927       .  S
O235        C256   1.270       .  A
O236       Ni259   1.919       .  S
O236        C245   1.269       .  A
O237       Ni241   1.903       .  S
O237       Ni259   1.913       .  S
O237       Ni253   1.916       .  S
O237        H260   0.970       .  S
C238        O255   1.280       .  A
C238        O247   1.279       .  A
C238        C324   1.485       .  S
O239       Ni258   1.929       .  S
O239        C245   1.273       .  A
O240       Ni258   1.905       .  S
O240        C242   1.269       .  A
Ni241       O244   1.934       .  S
Ni241       O246   1.896       .  S
C242        O252   1.272       .  A
C242        C434   1.481       .  S
O243       Ni259   1.912       .  S
O243        C249   1.274       .  A
O244        C249   1.279       .  A
C245        C347   1.481       .  S
O246        C248   1.267       .  A
O247       Ni258   1.920       .  S
C248        O254   1.274       .  A
C248        C447   1.480   1_455  S
C249       C1006   1.485       .  S
H250        O251   0.966       .  S
O251       Ni259   1.908       .  S
O251       Ni253   1.906       .  S
O251       Ni258   1.895       .  S
O252       Ni253   1.927       .  S
Ni253       O257   1.923       .  S
Ni253       O255   1.927       .  S
O254       Ni259   1.935       .  S
C256        O257   1.269       .  A
C256        C497   1.474       .  S
O261       Ni267   1.922       .  S
O261        C282   1.269       .  A
O262       Ni285   1.915       .  S
O262        C271   1.270       .  A
O263       Ni267   1.894       .  S
O263       Ni285   1.906       .  S
O263       Ni279   1.917       .  S
O263        H286   0.966       .  S
C264        O281   1.282       .  A
C264        O273   1.282       .  A
C264        C417   1.487       .  S
O265       Ni284   1.939       .  S
O265        C271   1.276       .  A
O266       Ni284   1.907       .  S
O266        C268   1.269       .  A
Ni267       O270   1.926       .  S
Ni267       O272   1.899       .  S
C268        O278   1.272       .  A
C268        C327   1.482       .  S
O269       Ni285   1.912       .  S
O269       C1619   1.274   1_455  A
O270       C1619   1.279   1_455  A
C271        C314   1.487       .  S
O272        C274   1.268       .  A
O273       Ni284   1.927       .  S
C274        O280   1.277       .  A
C274        C337   1.488       .  S
C275       O1613   1.274       .  A
C275       O1614   1.279       .  A
C275        C427   1.478       .  S
H276        O277   0.966       .  S
O277       Ni285   1.904       .  S
O277       Ni279   1.905       .  S
O277       Ni284   1.891       .  S
O278       Ni279   1.927       .  S
Ni279       O283   1.930       .  S
Ni279       O281   1.929       .  S
O280       Ni285   1.943       .  S
C282        O283   1.271       .  A
C282        C477   1.476       .  S
O287       Ni293   1.926       .  S
O287        C308   1.270       .  A
O288       Ni311   1.917       .  S
O288        C297   1.269       .  A
O289       Ni293   1.902       .  S
O289       Ni311   1.914       .  S
O289       Ni305   1.912       .  S
O289        H312   0.967       .  S
C290        O307   1.279       .  A
C290        O299   1.280       .  A
C290        C367   1.484       .  S
O291       Ni310   1.935       .  S
O291        C297   1.274       .  A
O292       Ni310   1.907       .  S
O292        C294   1.269       .  A
Ni293       O296   1.927       .  S
Ni293       O298   1.895       .  S
C294        O304   1.272       .  A
C294        C407   1.481       .  S
O295       Ni311   1.904       .  S
O295       C1645   1.272       .  A
O296       C1645   1.277       .  A
C297        C317   1.488       .  S
O298        C300   1.267       .  A
O299       Ni310   1.923       .  S
C300        O306   1.275       .  A
C300       C1069   1.483   1_545  S
C301       O1639   1.272   1_455  A
C301       O1640   1.277   1_455  A
C301        C357   1.474       .  S
H302        O303   0.966       .  S
O303       Ni311   1.904       .  S
O303       Ni305   1.907       .  S
O303       Ni310   1.896       .  S
O304       Ni305   1.927       .  S
Ni305       O309   1.920       .  S
Ni305       O307   1.923       .  S
O306       Ni311   1.941       .  S
C308        O309   1.268       .  A
C308        C467   1.473       .  S
C313        C318   1.410   1_556  A
C313       C1658   1.408       .  A
C313        H319   1.083       .  S
C314        C315   1.404       .  A
C314       C1657   1.408       .  A
C315        C316   1.395   1_456  A
C315        H320   1.083       .  S
C316       C1661   1.405       .  A
C316        H321   1.083       .  S
C317        C318   1.409       .  A
C317       C1660   1.405       .  A
C318        H322   1.083       .  S
C323        C324   1.407       .  A
C323        C328   1.401       .  A
C323        H329   1.083       .  S
C324        C325   1.407       .  A
C325        C326   1.396       .  A
C325        H330   1.083       .  S
C326        C327   1.405       .  A
C326        H331   1.083       .  S
C327        C328   1.406       .  A
C328        H332   1.083       .  S
C333        C334   1.409       .  A
C333        C338   1.404       .  A
C333        H339   1.083       .  S
C334        C921   1.485   1_545  S
C334        C335   1.404       .  A
C335        C336   1.396       .  A
C335       H1012   1.083       .  S
C336        C337   1.409       .  A
C336        H341   1.083       .  S
C337        C338   1.405       .  A
C338        H342   1.083       .  S
H340       C1007   1.083       .  S
C343        C348   1.410   1_554  A
C343       C1016   1.410       .  A
C343        H349   1.083       .  S
C344        C345   1.404       .  A
C344       C1015   1.410       .  A
C345       C1018   1.390   1_544  A
C345        H350   1.083       .  S
C346        C347   1.402       .  A
C346       C1017   1.391   1_556  A
C346        H351   1.083       .  S
C347        C348   1.408       .  A
C348        H352   1.083       .  S
C353        C354   1.405       .  A
C353        C358   1.400       .  A
C353        H359   1.083       .  S
C354        C355   1.406       .  A
C355        C356   1.392       .  A
C355        H360   1.083       .  S
C356        C357   1.402       .  A
C356       H1705   1.083       .  S
C357        C358   1.407       .  A
C358        H362   1.083       .  S
H361       C1700   1.083       .  S
C363        C364   1.406       .  A
C363        C368   1.402       .  A
C363        H369   1.083       .  S
C364        C365   1.406       .  A
C365        C366   1.394       .  A
C365        H370   1.083       .  S
C366        C367   1.405       .  A
C366        H371   1.083       .  S
C367        C368   1.408       .  A
C368        H372   1.083       .  S
C373        C378   1.401       .  A
C373       C1718   1.405       .  A
C373       H1723   1.083       .  S
C374       C1717   1.405       .  A
C374       C1719   1.406       .  A
C375        C376   1.392       .  A
C375       C1718   1.406       .  A
C375        H380   1.083       .  S
C376        C377   1.402       .  A
C376        H381   1.083       .  S
C377        C378   1.409       .  A
C378        H382   1.083       .  S
H379       C1717   1.083       .  S
C383        C384   1.407       .  A
C383        C388   1.403       .  A
C383        H389   1.083       .  S
C384        C385   1.404       .  A
C385        C386   1.394       .  A
C385        H390   1.083       .  S
C386        C387   1.405       .  A
C386        H391   1.083       .  S
C387        C388   1.407       .  A
C388        H392   1.083       .  S
C393        C394   1.403       .  A
C393        C398   1.393       .  A
C393        H399   1.083       .  S
C394        C395   1.407       .  A
C395        C396   1.402       .  A
C395        H400   1.083       .  S
C396        C397   1.406       .  A
C396       H1073   1.083       .  S
C397        C972   1.483       .  S
C397        C398   1.407       .  A
C398        H402   1.083       .  S
H401       C1068   1.083       .  S
C403        C404   1.408       .  A
C403        C408   1.402       .  A
C403        H409   1.083       .  S
C404        C405   1.406       .  A
C405        C406   1.396       .  A
C405        H410   1.083       .  S
C406        C407   1.405       .  A
C406        H411   1.083       .  S
C407        C408   1.406       .  A
C408        H412   1.083       .  S
C413        C414   1.406       .  A
C413        C418   1.404       .  A
C413        H419   1.083       .  S
C414        C415   1.406       .  A
C415        C416   1.396       .  A
C415        H420   1.083       .  S
C416        C417   1.406       .  A
C416        H421   1.083       .  S
C417        C418   1.408       .  A
C418        H422   1.083       .  S
C423        C424   1.404       .  A
C423       C1100   1.401       .  A
C423        H429   1.083       .  S
C424       C1097   1.407       .  A
C425        C426   1.394       .  A
C425       C1096   1.407   1_545  A
C425        H430   1.083       .  S
C426        C427   1.402       .  A
C426        H431   1.083       .  S
C427        C428   1.408       .  A
C428       C1095   1.401       .  A
C428       H1776   1.083       .  S
H432       C1772   1.083       .  S
C433        C434   1.405       .  A
C433        C438   1.394       .  A
C433        H439   1.083       .  S
C434        C435   1.407       .  A
C435        C436   1.402       .  A
C435        H440   1.083       .  S
C436        C437   1.407       .  A
C436        H441   1.083       .  S
C437        C438   1.406       .  A
C438        H442   1.083       .  S
C443        C444   1.401       .  A
C443        C448   1.395       .  A
C443        H449   1.083       .  S
C444        C445   1.405       .  A
C445        C446   1.398       .  A
C445        H450   1.083       .  S
C446       C1791   1.405       .  A
C446       H1795   1.083       .  S
C447       C1790   1.405       .  A
C447       C1792   1.408       .  A
C448       C1791   1.408       .  A
C448        H452   1.083       .  S
H451       C1790   1.083       .  S
C453        C454   1.406       .  A
C453        C458   1.396   1_556  A
C453        H459   1.083       .  S
C454        C455   1.410       .  A
C455        C456   1.411   1_556  A
C455        H460   1.083       .  S
C456        C457   1.409       .  A
C456        H461   1.083       .  S
C457        C458   1.404       .  A
C458        H462   1.083       .  S
C463        C464   1.405       .  A
C463        C468   1.406       .  A
C463        H469   1.083       .  S
C464        C465   1.403       .  A
C465        C466   1.394       .  A
C465        H470   1.084       .  S
C466        C467   1.402       .  A
C466        H471   1.084       .  S
C467        C468   1.406       .  A
C468        H472   1.083       .  S
C473        C474   1.402       .  A
C473        C478   1.393       .  A
C473        H479   1.084       .  S
C474        C475   1.407       .  A
C475        C476   1.409       .  A
C475        H480   1.083       .  S
C476        C477   1.407       .  A
C476        H481   1.083       .  S
C477        C478   1.403       .  A
C478        H482   1.084       .  S
C483        C488   1.406   1_655  A
C483       C1828   1.407       .  A
C483        H489   1.083       .  S
C484        C485   1.405       .  A
C484       C1827   1.407       .  A
C485        C486   1.394       .  A
C485        H490   1.083       .  S
C486       C1831   1.404       .  A
C486        H491   1.083       .  S
C487        C488   1.407       .  A
C487       C1830   1.404       .  A
C488        H492   1.083       .  S
C493        C494   1.402       .  A
C493        C498   1.394       .  A
C493        H499   1.084       .  S
C494        C495   1.406       .  A
C495        C496   1.407       .  A
C495        H500   1.083       .  S
C496        C497   1.406       .  A
C496        H501   1.083       .  S
C497        C498   1.403       .  A
C498        H502   1.084       .  S
C503        C504   1.408       .  A
C503        C508   1.401       .  A
C503        H509   1.083       .  S
C504        C505   1.406       .  A
C505        C506   1.395       .  A
C505        H510   1.083       .  S
C506        C507   1.404       .  A
C506        H511   1.083       .  S
C507        C508   1.406       .  A
C508        H512   1.083       .  S
C513        C514   1.402       .  A
C513        C518   1.393       .  A
C513        H519   1.083       .  S
C514        C754   1.480   1_545  S
C514        C515   1.408       .  A
C515        C516   1.404       .  A
C515       H1192   1.083       .  S
C516        C517   1.407       .  A
C516        H521   1.083       .  S
C517        C518   1.408       .  A
C518        H522   1.083       .  S
H520       C1187   1.083       .  S
C523        C524   1.403       .  A
C523        C528   1.392       .  A
C523        H529   1.084       .  S
C524        C525   1.407       .  A
C525        C526   1.410       .  A
C525        H530   1.083       .  S
C526        C527   1.407       .  A
C526        H531   1.083       .  S
C527        C528   1.403       .  A
C528        H532   1.084       .  S
C533        C534   1.406       .  A
C533       C1210   1.394   1_545  A
C533        H539   1.083       .  S
C534       C1207   1.409       .  A
C535        C536   1.407       .  A
C535       C1206   1.409       .  A
C535        H540   1.083       .  S
C536        C537   1.406       .  A
C536        H541   1.083       .  S
C537        C538   1.402       .  A
C538       C1205   1.394       .  A
C538        H542   1.084       .  S
C543        C544   1.407       .  A
C543        C548   1.392       .  A
C543        H549   1.083       .  S
C544        C545   1.405       .  A
C545        C546   1.402       .  A
C545        H550   1.083       .  S
C546        C547   1.408       .  A
C546       H1895   1.083       .  S
C547        C548   1.402       .  A
C548        H552   1.083       .  S
H551       C1890   1.083       .  S
C553        C554   1.406       .  A
C553        C558   1.400       .  A
C553        H559   1.083       .  S
C554        C555   1.404       .  A
C555        C556   1.391       .  A
C555        H560   1.083       .  S
C556        C557   1.406       .  A
C556        H561   1.083       .  S
C557        C558   1.407       .  A
C558        H562   1.083       .  S
C563        C564   1.402       .  A
C563        C568   1.394       .  A
C563        H569   1.084       .  S
C564        C565   1.407       .  A
C565        C566   1.409       .  A
C565        H570   1.083       .  S
C566        C567   1.407       .  A
C566        H571   1.083       .  S
C567        C568   1.404       .  A
C568        H572   1.084       .  S
C573        C574   1.407       .  A
C573        C578   1.403       .  A
C573        H579   1.083       .  S
C574        C575   1.401       .  A
C575        C576   1.393       .  A
C575        H580   1.083       .  S
C576        C577   1.407       .  A
C576       H1253   1.083       .  S
C577        C810   1.481       .  S
C577        C578   1.406       .  A
C578        H582   1.083       .  S
H581       C1248   1.083       .  S
C583        C584   1.403       .  A
C583        C588   1.392       .  A
C583        H589   1.083       .  S
C584        C585   1.407       .  A
C585        C586   1.402       .  A
C585        H590   1.083       .  S
C586        C587   1.407       .  A
C586        H591   1.083       .  S
C587        C588   1.406       .  A
C588        H592   1.083       .  S
C593        C598   1.403       .  A
C593       C1938   1.405       .  A
C593       H1943   1.083       .  S
C594       C1937   1.405       .  A
C594       C1939   1.407       .  A
C595        C596   1.392       .  A
C595       C1938   1.407       .  A
C595        H600   1.083       .  S
C596        C597   1.403       .  A
C596        H601   1.083       .  S
C597        C598   1.409       .  A
C598        H602   1.083       .  S
H599       C1937   1.083       .  S
C603        C604   1.407       .  A
C603        C608   1.405       .  A
C603        H609   1.083       .  S
C604        C605   1.404       .  A
C605        C606   1.392       .  A
C605        H610   1.083       .  S
C606        C607   1.405       .  A
C606        H611   1.083       .  S
C607        C608   1.409       .  A
C608        H612   1.083       .  S
C613        C614   1.406       .  A
C613        C618   1.408       .  A
C613        H619   1.083       .  S
C614        C615   1.402       .  A
C615        C616   1.394       .  A
C615        H620   1.084       .  S
C616        C617   1.404       .  A
C616        H621   1.084       .  S
C617        C618   1.406       .  A
C618        H622   1.083       .  S
C623        C624   1.406       .  A
C623        C628   1.401       .  A
C623        H629   1.083       .  S
C624        C625   1.402       .  A
C625        C626   1.393       .  A
C625        H630   1.083       .  S
C626        C627   1.406       .  A
C626        H631   1.083       .  S
C627        C628   1.407       .  A
C628        H632   1.083       .  S
C633        C638   1.391       .  A
C633       C1306   1.406   1_545  A
C633        H639   1.083       .  S
C634        C635   1.406       .  A
C634       C1305   1.406       .  A
C635       C1308   1.404       .  A
C635        H640   1.083       .  S
C636        C637   1.408       .  A
C636       C1307   1.404       .  A
C636       H1985   1.083       .  S
C637        C638   1.402       .  A
C638        H642   1.083       .  S
H641       C1980   1.083       .  S
C643        C644   1.408       .  A
C643        C648   1.403       .  A
C643        H649   1.083       .  S
C644        C645   1.406       .  A
C645        C646   1.393       .  A
C645        H650   1.083       .  S
C646        C647   1.404       .  A
C646        H651   1.083       .  S
C647        C648   1.407       .  A
C648        H652   1.083       .  S
C653        C654   1.406       .  A
C653        C658   1.401       .  A
C653        H659   1.083       .  S
C654        C655   1.402       .  A
C655        C656   1.394       .  A
C655        H660   1.083       .  S
C656       C2001   1.407       .  A
C656        H661   1.083       .  S
C657       C2000   1.407       .  A
C657       C2002   1.406       .  A
C658       C2001   1.406       .  A
C658       H2006   1.083       .  S
H662       C2002   1.083       .  S
C663        C664   1.405       .  A
C663        C668   1.398       .  A
C663        H669   1.083       .  S
C664        C665   1.407       .  A
C665        C666   1.407       .  A
C665        H670   1.083       .  S
C666        C667   1.408       .  A
C666        H671   1.083       .  S
C667        C668   1.407       .  A
C668        H672   1.083       .  S
O673       Ni679   1.942       .  S
O673        C694   1.275       .  A
O674       Ni697   1.924       .  S
O674        C683   1.268       .  A
O675       Ni679   1.895       .  S
O675       Ni697   1.909       .  S
O675       Ni691   1.902       .  S
O675        H698   0.966       .  S
C676        O693   1.273       .  A
C676        O685   1.277       .  A
C676       C1326   1.476       .  S
O677       Ni696   1.925       .  S
O677        C683   1.269       .  A
O678       Ni696   1.896       .  S
O678        C680   1.268       .  A
Ni679       O682   1.924       .  S
Ni679       O684   1.904       .  S
C680        O690   1.274       .  A
C680       C1306   1.481       .  S
O681       Ni697   1.926       .  S
O681        C687   1.280       .  A
O682        C687   1.280       .  A
C683       C1286   1.475       .  S
O684        C686   1.269       .  A
O685       Ni696   1.924       .  S
C686        O692   1.269       .  A
C686       C1296   1.475       .  S
C687       C1316   1.484       .  S
H688        O689   0.966       .  S
O689       Ni697   1.915       .  S
O689       Ni691   1.914       .  S
O689       Ni696   1.899       .  S
O690       Ni691   1.937       .  S
Ni691       O695   1.911       .  S
Ni691       O693   1.911       .  S
O692       Ni697   1.921       .  S
C694        O695   1.268       .  A
C694       C1336   1.486       .  S
O699       Ni705   1.939       .  S
O699        C720   1.274       .  A
O700       Ni723   1.928       .  S
O700        C709   1.269       .  A
O701       Ni705   1.894       .  S
O701       Ni723   1.911       .  S
O701       Ni717   1.901       .  S
O701        H724   0.966       .  S
C702        O719   1.271       .  A
C702        O711   1.276       .  A
C702       C1246   1.476       .  S
O703       Ni722   1.924       .  S
O703        C709   1.269       .  A
O704       Ni722   1.895       .  S
O704        C706   1.268       .  A
Ni705       O708   1.921       .  S
Ni705       O710   1.901       .  S
C706        O716   1.275       .  A
C706       C1266   1.483       .  S
O707       Ni723   1.925       .  S
O707        C713   1.280       .  A
O708        C713   1.280       .  A
C709       C1236   1.478       .  S
O710        C712   1.269       .  A
O711       Ni722   1.924       .  S
C712        O718   1.272       .  A
C712       C1276   1.482       .  S
C713       C1259   1.483       .  S
H714        O715   0.966       .  S
O715       Ni723   1.917       .  S
O715       Ni717   1.919       .  S
O715       Ni722   1.901       .  S
O716       Ni717   1.941       .  S
Ni717       O721   1.913       .  S
Ni717       O719   1.910       .  S
O718       Ni723   1.931       .  S
C720        O721   1.269       .  A
C720       C1339   1.489       .  S
O725       Ni731   1.935       .  S
O725        C746   1.275       .  A
O726       Ni749   1.930       .  S
O726        C735   1.270       .  A
O727       Ni731   1.890       .  S
O727       Ni749   1.910       .  S
O727       Ni743   1.909       .  S
O727        H750   0.966       .  S
C728        O745   1.277   1_565  A
C728        O737   1.279       .  A
C728       C1269   1.482       .  S
O729       Ni748   1.920       .  S
O729        C735   1.267       .  A
O730       Ni748   1.894       .  S
O730        C732   1.266       .  A
Ni731       O734   1.922       .  S
Ni731       O736   1.901       .  S
C732        O742   1.273       .  A
C732       C1216   1.481       .  S
O733       Ni749   1.927       .  S
O733        C739   1.280       .  A
O734        C739   1.280       .  A
C735       C1196   1.478       .  S
O736        C738   1.269       .  A
C738        O744   1.272       .  A
C738       C1226   1.477       .  S
C739       C1279   1.485       .  S
H740        O741   0.966       .  S
O741       Ni749   1.913       .  S
O741       Ni743   1.904       .  S
O741       Ni748   1.890       .  S
O742       Ni743   1.935       .  S
Ni743       O747   1.912       .  S
O744       Ni749   1.924       .  S
C746        O747   1.269       .  A
C746       C1206   1.486       .  S
O751       Ni757   1.935       .  S
O751        C772   1.273       .  A
O752       Ni775   1.921       .  S
O752        C761   1.268       .  A
O753       Ni757   1.894       .  S
O753       Ni775   1.907       .  S
O753       Ni769   1.905       .  S
O753        H776   0.966       .  S
C754        O771   1.274       .  A
C754        O763   1.279       .  A
O755       Ni774   1.929       .  S
O755        C761   1.271       .  A
O756       Ni774   1.898       .  S
O756        C758   1.267       .  A
Ni757       O760   1.922       .  S
Ni757       O762   1.904       .  S
C758        O768   1.273       .  A
C758       C1329   1.482   1_455  S
O759       Ni775   1.925       .  S
O759        C765   1.279       .  A
O760        C765   1.280       .  A
C761       C1166   1.475       .  S
O762        C764   1.269       .  A
O763       Ni774   1.931       .  S
C764        O770   1.272       .  A
C764       C1319   1.480       .  S
C765       C1176   1.484       .  S
H766        O767   0.966       .  S
O767       Ni775   1.911       .  S
O767       Ni769   1.913       .  S
O767       Ni774   1.900       .  S
O768       Ni769   1.938       .  S
Ni769       O773   1.914       .  S
Ni769       O771   1.910       .  S
O770       Ni775   1.926       .  S
C772        O773   1.268       .  A
C772       C1209   1.480       .  S
O777       Ni783   1.935       .  S
O777        C798   1.274       .  A
O778       Ni801   1.926       .  S
O778        C787   1.269       .  A
O779       Ni783   1.893       .  S
O779       Ni801   1.906       .  S
O779       Ni795   1.902       .  S
O779        H802   0.966       .  S
C780       O2141   1.273       .  A
C780       O2133   1.277       .  A
C780       C1309   1.478       .  S
O781       Ni800   1.925       .  S
O781        C787   1.270       .  A
O782       Ni800   1.895       .  S
O782        C784   1.268       .  A
Ni783       O786   1.920       .  S
Ni783       O788   1.906       .  S
C784        O794   1.276       .  A
C784       C1189   1.486       .  S
O785       Ni801   1.926       .  S
O785        C791   1.280       .  A
O786        C791   1.280       .  A
C787       C1146   1.477       .  S
O788        C790   1.269       .  A
O789       Ni800   1.922       .  S
O789       C2124   1.277   1_455  A
C790        O796   1.271       .  A
C790       C1179   1.480       .  S
C791       C1299   1.480       .  S
H792        O793   0.966       .  S
O793       Ni801   1.914       .  S
O793       Ni795   1.912       .  S
O793       Ni800   1.895       .  S
O794       Ni795   1.942       .  S
Ni795       O799   1.911       .  S
Ni795       O797   1.912       .  S
O796       Ni801   1.926       .  S
O797       C2124   1.273   1_455  A
C798        O799   1.268       .  A
C798       C1159   1.482       .  S
O803       Ni809   1.930       .  S
O803        C824   1.273       .  A
O804       Ni827   1.926       .  S
O804        C813   1.269       .  A
O805       Ni809   1.891       .  S
O805       Ni827   1.907       .  S
O805       Ni821   1.906       .  S
O805        H828   0.966       .  S
C806       O2167   1.275   1_455  A
C806       O2159   1.280   1_455  A
C806       C1219   1.478       .  S
O807       Ni826   1.923       .  S
O807        C813   1.268       .  A
O808       Ni826   1.892       .  S
O808        C810   1.266       .  A
Ni809       O812   1.915       .  S
Ni809       O814   1.904       .  S
C810        O820   1.274       .  A
O811       Ni827   1.926       .  S
O811        C817   1.280       .  A
O812        C817   1.278       .  A
C813       C1136   1.474       .  S
O814        C816   1.269       .  A
O815       Ni826   1.926       .  S
O815       C2150   1.280       .  A
C816        O822   1.271       .  A
C816       C1256   1.479       .  S
C817       C1229   1.481       .  S
H818        O819   0.966       .  S
O819       Ni827   1.910       .  S
O819       Ni821   1.906       .  S
O819       Ni826   1.891       .  S
O820       Ni821   1.939       .  S
Ni821       O825   1.915       .  S
Ni821       O823   1.910       .  S
O822       Ni827   1.925       .  S
O823       C2150   1.275       .  A
C824        O825   1.269       .  A
C824       C1156   1.483       .  S
O829       Ni835   1.922       .  S
O829        C850   1.267       .  A
O830       Ni853   1.920       .  S
O830        C839   1.269       .  A
O831       Ni835   1.905       .  S
O831       Ni853   1.915       .  S
O831       Ni847   1.912       .  S
O831        H854   0.966       .  S
C832        O849   1.278       .  A
C832        O841   1.279       .  A
C832       C1109   1.484       .  S
O833       Ni852   1.938       .  S
O833        C839   1.274       .  A
O834       Ni852   1.902       .  S
O834        C836   1.269       .  A
Ni835       O838   1.929       .  S
Ni835       O840   1.894       .  S
C836        O846   1.275       .  A
C836       C1086   1.485       .  S
O837       Ni853   1.904       .  S
O837        C843   1.272       .  A
O838        C843   1.277       .  A
C839       C1126   1.492       .  S
O840        C842   1.266       .  A
O841       Ni852   1.923       .  S
C842        O848   1.274       .  A
C842       C1096   1.481       .  S
C843       C1116   1.472       .  S
H844        O845   0.966       .  S
O845       Ni853   1.907       .  S
O845       Ni847   1.916       .  S
O845       Ni852   1.897       .  S
O846       Ni847   1.935       .  S
Ni847       O851   1.930       .  S
Ni847       O849   1.922       .  S
O848       Ni853   1.939       .  S
C850        O851   1.270       .  A
C850       C1289   1.477       .  S
O855       Ni861   1.919       .  S
O855        C876   1.267       .  A
O856       Ni879   1.915       .  S
O856        C865   1.268       .  A
O857       Ni861   1.899       .  S
O857       Ni879   1.912       .  S
O857       Ni873   1.913       .  S
O857        H880   0.966       .  S
C858        O875   1.280       .  A
C858        O867   1.281       .  A
C858       C1076   1.486       .  S
O859       Ni878   1.944       .  S
O859        C865   1.276       .  A
O860       Ni878   1.903       .  S
O860        C862   1.270       .  A
Ni861       O864   1.923       .  S
Ni861       O866   1.894       .  S
C862        O872   1.273       .  A
C862       C1056   1.481       .  S
O863       Ni879   1.915       .  S
O863        C869   1.275       .  A
O864        C869   1.278       .  A
C865       C1129   1.489       .  S
O866        C868   1.266       .  A
O867       Ni878   1.929       .  S
C868        O874   1.271       .  A
C868       C1046   1.479       .  S
C869       C1066   1.479       .  S
H870        O871   0.966       .  S
O871       Ni879   1.909       .  S
O871       Ni873   1.914       .  S
O871       Ni878   1.894       .  S
O872       Ni873   1.929       .  S
Ni873       O877   1.935       .  S
Ni873       O875   1.925       .  S
O874       Ni879   1.933       .  S
C876        O877   1.271       .  A
C876       C1239   1.481       .  S
O881       Ni887   1.919       .  S
O881        C902   1.268       .  A
O882       Ni905   1.910       .  S
O882        C891   1.266       .  A
O883       Ni887   1.895       .  S
O883       Ni905   1.908       .  S
O883       Ni899   1.915       .  S
O883        H906   0.966       .  S
C884        O901   1.280       .  A
C884        O893   1.280       .  A
C884       C1059   1.482       .  S
O885       Ni904   1.937       .  S
O885        C891   1.275       .  A
O886       Ni904   1.902       .  S
O886        C888   1.269       .  A
Ni887       O892   1.897       .  S
C888        O898   1.273       .  A
C888       C1036   1.482       .  S
O889        C895   1.273   1_545  A
O890        C895   1.278       .  A
C891       C1016   1.486       .  S
O892        C894   1.267       .  A
O893       Ni904   1.924       .  S
C894        O900   1.272       .  A
C894       C1026   1.477       .  S
C895       C1049   1.478       .  S
H896        O897   0.966       .  S
O897       Ni905   1.905       .  S
O897       Ni899   1.913       .  S
O897       Ni904   1.892       .  S
O898       Ni899   1.931       .  S
Ni899       O903   1.934       .  S
Ni899       O901   1.924       .  S
O900       Ni905   1.930       .  S
C902        O903   1.271       .  A
C902       C1199   1.479       .  S
O907       Ni913   1.927       .  S
O907        C928   1.270       .  A
O908       Ni931   1.919       .  S
O908        C917   1.268       .  A
O909       Ni913   1.903       .  S
O909       Ni931   1.913       .  S
O909       Ni925   1.916       .  S
O909        H932   0.970       .  S
C910        O927   1.280       .  A
C910        O919   1.279       .  A
C910        C996   1.485       .  S
O911       Ni930   1.928       .  S
O911        C917   1.273       .  A
O912       Ni930   1.905       .  S
O912        C914   1.269       .  A
Ni913       O916   1.934       .  S
Ni913       O918   1.897       .  S
C914        O924   1.272       .  A
C914       C1106   1.482       .  S
O915       Ni931   1.912       .  S
O915        C921   1.274       .  A
O916        C921   1.279       .  A
C917       C1019   1.481       .  S
O918        C920   1.267       .  A
O919       Ni930   1.920       .  S
C920        O926   1.274       .  A
C920       C1119   1.480   1_455  S
H922        O923   0.966       .  S
O923       Ni931   1.908       .  S
O923       Ni925   1.906       .  S
O923       Ni930   1.895       .  S
O924       Ni925   1.927       .  S
Ni925       O929   1.923       .  S
Ni925       O927   1.927       .  S
O926       Ni931   1.935       .  S
C928        O929   1.269       .  A
C928       C1169   1.475       .  S
O933       Ni939   1.922       .  S
O933        C954   1.269       .  A
O934       Ni957   1.915       .  S
O934        C943   1.270       .  A
O935       Ni939   1.894       .  S
O935       Ni957   1.906       .  S
O935       Ni951   1.916       .  S
O935        H958   0.966       .  S
C936        O953   1.282       .  A
C936        O945   1.282       .  A
C936       C1089   1.487       .  S
O937       Ni956   1.939       .  S
O937        C943   1.276       .  A
O938       Ni956   1.907       .  S
O938        C940   1.269       .  A
Ni939       O942   1.925       .  S
Ni939       O944   1.899       .  S
C940        O950   1.272       .  A
C940        C999   1.482       .  S
O941       Ni957   1.912       .  S
O941       C2291   1.274   1_455  A
O942       C2291   1.278   1_455  A
C943        C986   1.487       .  S
O944        C946   1.268       .  A
O945       Ni956   1.926       .  S
C946        O952   1.277       .  A
C946       C1009   1.488       .  S
C947       O2285   1.274       .  A
C947       O2286   1.278       .  A
C947       C1099   1.478       .  S
H948        O949   0.966       .  S
O949       Ni957   1.904       .  S
O949       Ni951   1.905       .  S
O949       Ni956   1.891       .  S
O950       Ni951   1.927       .  S
Ni951       O955   1.930       .  S
Ni951       O953   1.929       .  S
O952       Ni957   1.943       .  S
C954        O955   1.271       .  A
C954       C1149   1.476       .  S
O959       Ni965   1.927       .  S
O959        C980   1.270       .  A
O960       Ni983   1.917       .  S
O960        C969   1.269       .  A
O961       Ni965   1.902       .  S
O961       Ni983   1.914       .  S
O961       Ni977   1.912       .  S
O961        H984   0.967       .  S
C962        O979   1.279       .  A
C962        O971   1.280       .  A
C962       C1039   1.484       .  S
O963       Ni982   1.935       .  S
O963        C969   1.274       .  A
O964       Ni982   1.907       .  S
O964        C966   1.269       .  A
Ni965       O968   1.927       .  S
Ni965       O970   1.895       .  S
C966        O976   1.272       .  A
C966       C1079   1.481       .  S
O967       Ni983   1.904       .  S
O967       C2317   1.272       .  A
O968       C2317   1.277       .  A
C969        C989   1.488       .  S
O970        C972   1.267       .  A
O971       Ni982   1.923       .  S
C972        O978   1.275       .  A
C973       O2311   1.272   1_455  A
C973       O2312   1.277   1_455  A
C973       C1029   1.474       .  S
H974        O975   0.966       .  S
O975       Ni983   1.904       .  S
O975       Ni977   1.907       .  S
O975       Ni982   1.896       .  S
O976       Ni977   1.927       .  S
Ni977       O981   1.920       .  S
Ni977       O979   1.923       .  S
O978       Ni983   1.941       .  S
C980        O981   1.268       .  A
C980       C1139   1.473       .  S
C985       C2330   1.408       .  A
C985        C990   1.410   1_556  A
C985        H991   1.083       .  S
C986       C2329   1.408       .  A
C986        C987   1.404       .  A
C987        C988   1.395   1_456  A
C987        H992   1.083       .  S
C988       C2333   1.405       .  A
C988        H993   1.083       .  S
C989       C2332   1.405       .  A
C989        C990   1.409       .  A
C990        H994   1.083       .  S
C995        C996   1.407       .  A
C995       C1000   1.401       .  A
C995       H1001   1.083       .  S
C996        C997   1.407       .  A
C997        C998   1.396       .  A
C997       H1002   1.083       .  S
C998        C999   1.405       .  A
C998       H1003   1.083       .  S
C999       C1000   1.406       .  A
C1000      H1004   1.083       .  S
C1005      C1006   1.409       .  A
C1005      C1010   1.404       .  A
C1005      H1011   1.083       .  S
C1006      C1007   1.404       .  A
C1007      C1008   1.396       .  A
C1008      C1009   1.409       .  A
C1008      H1013   1.083       .  S
C1009      C1010   1.405       .  A
C1010      H1014   1.083       .  S
C1015      C1020   1.410   1_544  A
C1015      H1021   1.083       .  S
C1016      C1017   1.404       .  A
C1017      H1022   1.083       .  S
C1018      C1019   1.402       .  A
C1018      H1023   1.083       .  S
C1019      C1020   1.408       .  A
C1020      H1024   1.083       .  S
C1025      C1026   1.405       .  A
C1025      C1030   1.400       .  A
C1025      H1031   1.083       .  S
C1026      C1027   1.406       .  A
C1027      C1028   1.392       .  A
C1027      H1032   1.083       .  S
C1028      C1029   1.402       .  A
C1028      H2377   1.083       .  S
C1029      C1030   1.407       .  A
C1030      H1034   1.083       .  S
H1033      C2372   1.083       .  S
C1035      C1036   1.406       .  A
C1035      C1040   1.402       .  A
C1035      H1041   1.083       .  S
C1036      C1037   1.406       .  A
C1037      C1038   1.394       .  A
C1037      H1042   1.083       .  S
C1038      C1039   1.405       .  A
C1038      H1043   1.083       .  S
C1039      C1040   1.408       .  A
C1040      H1044   1.083       .  S
C1045      C2390   1.405       .  A
C1045      C1050   1.401       .  A
C1045      H2395   1.083       .  S
C1046      C2389   1.405       .  A
C1046      C2391   1.406       .  A
C1047      C2390   1.406       .  A
C1047      C1048   1.392       .  A
C1047      H1052   1.083       .  S
C1048      C1049   1.402       .  A
C1048      H1053   1.083       .  S
C1049      C1050   1.409       .  A
C1050      H1054   1.083       .  S
H1051      C2389   1.083       .  S
C1055      C1056   1.407       .  A
C1055      C1060   1.403       .  A
C1055      H1061   1.083       .  S
C1056      C1057   1.404       .  A
C1057      C1058   1.394       .  A
C1057      H1062   1.083       .  S
C1058      C1059   1.405       .  A
C1058      H1063   1.083       .  S
C1059      C1060   1.407       .  A
C1060      H1064   1.083       .  S
C1065      C1066   1.403       .  A
C1065      C1070   1.393       .  A
C1065      H1071   1.083       .  S
C1066      C1067   1.407       .  A
C1067      C1068   1.402       .  A
C1067      H1072   1.083       .  S
C1068      C1069   1.406       .  A
C1069      C1070   1.407       .  A
C1070      H1074   1.083       .  S
C1075      C1076   1.408       .  A
C1075      C1080   1.402       .  A
C1075      H1081   1.083       .  S
C1076      C1077   1.406       .  A
C1077      C1078   1.396       .  A
C1077      H1082   1.083       .  S
C1078      C1079   1.405       .  A
C1078      H1083   1.083       .  S
C1079      C1080   1.406       .  A
C1080      H1084   1.083       .  S
C1085      C1086   1.406       .  A
C1085      C1090   1.404       .  A
C1085      H1091   1.083       .  S
C1086      C1087   1.406       .  A
C1087      C1088   1.396       .  A
C1087      H1092   1.083       .  S
C1088      C1089   1.406       .  A
C1088      H1093   1.083       .  S
C1089      C1090   1.408       .  A
C1090      H1094   1.083       .  S
C1095      C1096   1.404   1_545  A
C1095      H1101   1.083   1_545  S
C1097      C1098   1.394       .  A
C1097      H1102   1.083       .  S
C1098      C1099   1.402       .  A
C1098      H1103   1.083       .  S
C1099      C1100   1.408       .  A
C1100      H2448   1.083       .  S
H1104      C2444   1.083       .  S
C1105      C1106   1.405       .  A
C1105      C1110   1.394       .  A
C1105      H1111   1.083       .  S
C1106      C1107   1.407       .  A
C1107      C1108   1.402       .  A
C1107      H1112   1.083       .  S
C1108      C1109   1.407       .  A
C1108      H1113   1.083       .  S
C1109      C1110   1.406       .  A
C1110      H1114   1.083       .  S
C1115      C1116   1.401       .  A
C1115      C1120   1.395       .  A
C1115      H1121   1.083       .  S
C1116      C1117   1.405       .  A
C1117      C1118   1.398       .  A
C1117      H1122   1.083       .  S
C1118      C2463   1.405       .  A
C1118      H2467   1.083       .  S
C1119      C2462   1.405       .  A
C1119      C2464   1.408       .  A
C1120      C2463   1.408       .  A
C1120      H1124   1.083       .  S
H1123      C2462   1.083       .  S
C1125      C1126   1.406       .  A
C1125      C1130   1.396   1_556  A
C1125      H1131   1.083       .  S
C1126      C1127   1.410       .  A
C1127      C1128   1.411   1_556  A
C1127      H1132   1.083       .  S
C1128      C1129   1.409       .  A
C1128      H1133   1.083       .  S
C1129      C1130   1.404       .  A
C1130      H1134   1.083       .  S
C1135      C1136   1.405       .  A
C1135      C1140   1.406       .  A
C1135      H1141   1.083       .  S
C1136      C1137   1.403       .  A
C1137      C1138   1.394       .  A
C1137      H1142   1.084       .  S
C1138      C1139   1.402       .  A
C1138      H1143   1.084       .  S
C1139      C1140   1.406       .  A
C1140      H1144   1.083       .  S
C1145      C1146   1.402       .  A
C1145      C1150   1.393       .  A
C1145      H1151   1.084       .  S
C1146      C1147   1.407       .  A
C1147      C1148   1.409       .  A
C1147      H1152   1.083       .  S
C1148      C1149   1.406       .  A
C1148      H1153   1.083       .  S
C1149      C1150   1.403       .  A
C1150      H1154   1.084       .  S
C1155      C2500   1.407       .  A
C1155      C1160   1.407   1_655  A
C1155      H1161   1.083       .  S
C1156      C2499   1.407       .  A
C1156      C1157   1.405       .  A
C1157      C1158   1.394       .  A
C1157      H1162   1.083       .  S
C1158      C2503   1.404       .  A
C1158      H1163   1.083       .  S
C1159      C2502   1.404       .  A
C1159      C1160   1.407       .  A
C1160      H1164   1.083       .  S
C1165      C1166   1.402       .  A
C1165      C1170   1.394       .  A
C1165      H1171   1.084       .  S
C1166      C1167   1.406       .  A
C1167      C1168   1.407       .  A
C1167      H1172   1.083       .  S
C1168      C1169   1.406       .  A
C1168      H1173   1.083       .  S
C1169      C1170   1.403       .  A
C1170      H1174   1.084       .  S
C1175      C1176   1.408       .  A
C1175      C1180   1.401       .  A
C1175      H1181   1.083       .  S
C1176      C1177   1.406       .  A
C1177      C1178   1.394       .  A
C1177      H1182   1.083       .  S
C1178      C1179   1.404       .  A
C1178      H1183   1.083       .  S
C1179      C1180   1.406       .  A
C1180      H1184   1.083       .  S
C1185      C1186   1.402       .  A
C1185      C1190   1.393       .  A
C1185      H1191   1.083       .  S
C1186      C1187   1.408       .  A
C1187      C1188   1.404       .  A
C1188      C1189   1.407       .  A
C1188      H1193   1.083       .  S
C1189      C1190   1.408       .  A
C1190      H1194   1.083       .  S
C1195      C1196   1.403       .  A
C1195      C1200   1.392       .  A
C1195      H1201   1.084       .  S
C1196      C1197   1.407       .  A
C1197      C1198   1.410       .  A
C1197      H1202   1.083       .  S
C1198      C1199   1.407       .  A
C1198      H1203   1.083       .  S
C1199      C1200   1.403       .  A
C1200      H1204   1.084       .  S
C1205      C1206   1.406       .  A
C1205      H1211   1.083       .  S
C1207      C1208   1.407   1_545  A
C1207      H1212   1.083       .  S
C1208      C1209   1.406       .  A
C1208      H1213   1.083       .  S
C1209      C1210   1.402       .  A
C1210      H1214   1.084       .  S
C1215      C1216   1.407       .  A
C1215      C1220   1.392       .  A
C1215      H1221   1.083       .  S
C1216      C1217   1.405       .  A
C1217      C1218   1.402       .  A
C1217      H1222   1.083       .  S
C1218      C1219   1.408       .  A
C1218      H2567   1.083       .  S
C1219      C1220   1.402       .  A
C1220      H1224   1.083       .  S
H1223      C2562   1.083       .  S
C1225      C1226   1.406       .  A
C1225      C1230   1.400       .  A
C1225      H1231   1.083       .  S
C1226      C1227   1.404       .  A
C1227      C1228   1.391       .  A
C1227      H1232   1.083       .  S
C1228      C1229   1.406       .  A
C1228      H1233   1.083       .  S
C1229      C1230   1.407       .  A
C1230      H1234   1.083       .  S
C1235      C1236   1.402       .  A
C1235      C1240   1.394       .  A
C1235      H1241   1.084       .  S
C1236      C1237   1.407       .  A
C1237      C1238   1.410       .  A
C1237      H1242   1.083       .  S
C1238      C1239   1.407       .  A
C1238      H1243   1.083       .  S
C1239      C1240   1.404       .  A
C1240      H1244   1.084       .  S
C1245      C1246   1.407       .  A
C1245      C1250   1.403       .  A
C1245      H1251   1.083       .  S
C1246      C1247   1.401       .  A
C1247      C1248   1.393       .  A
C1247      H1252   1.083       .  S
C1248      C1249   1.407       .  A
C1249      C1250   1.406       .  A
C1250      H1254   1.083       .  S
C1255      C1256   1.403       .  A
C1255      C1260   1.392       .  A
C1255      H1261   1.083       .  S
C1256      C1257   1.406       .  A
C1257      C1258   1.402       .  A
C1257      H1262   1.083       .  S
C1258      C1259   1.407       .  A
C1258      H1263   1.083       .  S
C1259      C1260   1.406       .  A
C1260      H1264   1.083       .  S
C1265      C2610   1.406       .  A
C1265      C1270   1.403       .  A
C1265      H2615   1.083       .  S
C1266      C2609   1.406       .  A
C1266      C2611   1.407       .  A
C1267      C2610   1.407       .  A
C1267      C1268   1.392       .  A
C1267      H1272   1.083       .  S
C1268      C1269   1.403       .  A
C1268      H1273   1.083       .  S
C1269      C1270   1.409       .  A
C1270      H1274   1.083       .  S
H1271      C2609   1.083       .  S
C1275      C1276   1.407       .  A
C1275      C1280   1.405       .  A
C1275      H1281   1.083       .  S
C1276      C1277   1.404       .  A
C1277      C1278   1.392       .  A
C1277      H1282   1.083       .  S
C1278      C1279   1.405       .  A
C1278      H1283   1.083       .  S
C1279      C1280   1.409       .  A
C1280      H1284   1.083       .  S
C1285      C1286   1.406       .  A
C1285      C1290   1.408       .  A
C1285      H1291   1.083       .  S
C1286      C1287   1.402       .  A
C1287      C1288   1.394       .  A
C1287      H1292   1.084       .  S
C1288      C1289   1.404       .  A
C1288      H1293   1.084       .  S
C1289      C1290   1.406       .  A
C1290      H1294   1.083       .  S
C1295      C1296   1.406       .  A
C1295      C1300   1.401       .  A
C1295      H1301   1.083       .  S
C1296      C1297   1.402       .  A
C1297      C1298   1.393       .  A
C1297      H1302   1.083       .  S
C1298      C1299   1.406       .  A
C1298      H1303   1.083       .  S
C1299      C1300   1.407       .  A
C1300      H1304   1.083       .  S
C1305      C1310   1.391       .  A
C1305      H1311   1.083       .  S
C1306      C1307   1.406   1_565  A
C1307      H1312   1.083   1_545  S
C1308      C1309   1.408       .  A
C1308      H2657   1.083       .  S
C1309      C1310   1.402       .  A
C1310      H1314   1.083       .  S
H1313      C2652   1.083       .  S
C1315      C1316   1.408       .  A
C1315      C1320   1.403       .  A
C1315      H1321   1.083       .  S
C1316      C1317   1.406       .  A
C1317      C1318   1.393       .  A
C1317      H1322   1.083       .  S
C1318      C1319   1.404       .  A
C1318      H1323   1.083       .  S
C1319      C1320   1.407       .  A
C1320      H1324   1.083       .  S
C1325      C1326   1.406       .  A
C1325      C1330   1.401       .  A
C1325      H1331   1.083       .  S
C1326      C1327   1.402       .  A
C1327      C1328   1.394       .  A
C1327      H1332   1.083       .  S
C1328      C2673   1.407       .  A
C1328      H1333   1.083       .  S
C1329      C2672   1.407       .  A
C1329      C2674   1.407       .  A
C1330      C2673   1.407       .  A
C1330      H2678   1.083       .  S
H1334      C2674   1.083       .  S
C1335      C1336   1.405       .  A
C1335      C1340   1.398       .  A
C1335      H1341   1.083       .  S
C1336      C1337   1.407       .  A
C1337      C1338   1.407       .  A
C1337      H1342   1.083       .  S
C1338      C1339   1.408       .  A
C1338      H1343   1.083       .  S
C1339      C1340   1.407       .  A
C1340      H1344   1.083       .  S
O1345     Ni1351   1.942       .  S
O1345      C1366   1.275       .  A
O1346     Ni1369   1.925       .  S
O1346      C1355   1.268       .  A
O1347     Ni1351   1.895       .  S
O1347     Ni1369   1.909       .  S
O1347     Ni1363   1.902       .  S
O1347      H1370   0.966       .  S
C1348      O1365   1.273       .  A
C1348      O1357   1.277       .  A
C1348      C1998   1.476       .  S
O1349     Ni1368   1.925       .  S
O1349      C1355   1.269       .  A
O1350     Ni1368   1.896       .  S
O1350      C1352   1.268       .  A
Ni1351     O1354   1.924       .  S
Ni1351     O1356   1.904       .  S
C1352      O1362   1.274       .  A
C1352      C1978   1.481       .  S
O1353     Ni1369   1.926       .  S
O1353      C1359   1.280       .  A
O1354      C1359   1.281       .  A
C1355      C1958   1.475       .  S
O1356      C1358   1.269       .  A
O1357     Ni1368   1.924       .  S
C1358      O1364   1.269       .  A
C1358      C1968   1.475       .  S
C1359      C1988   1.484       .  S
H1360      O1361   0.966       .  S
O1361     Ni1369   1.915       .  S
O1361     Ni1363   1.913       .  S
O1361     Ni1368   1.898       .  S
O1362     Ni1363   1.937       .  S
Ni1363     O1367   1.911       .  S
Ni1363     O1365   1.911       .  S
O1364     Ni1369   1.921       .  S
C1366      O1367   1.268       .  A
C1366      C2008   1.486       .  S
O1371     Ni1377   1.938       .  S
O1371      C1392   1.274       .  A
O1372     Ni1395   1.928       .  S
O1372      C1381   1.269       .  A
O1373     Ni1377   1.894       .  S
O1373     Ni1395   1.911       .  S
O1373     Ni1389   1.901       .  S
O1373      H1396   0.966       .  S
C1374      O1391   1.271       .  A
C1374      O1383   1.276       .  A
C1374      C1918   1.476       .  S
O1375     Ni1394   1.924       .  S
O1375      C1381   1.269       .  A
O1376     Ni1394   1.894       .  S
O1376      C1378   1.267       .  A
Ni1377     O1380   1.921       .  S
Ni1377     O1382   1.901       .  S
C1378      O1388   1.275       .  A
C1378      C1938   1.483   1_655  S
O1379     Ni1395   1.925       .  S
O1379      C1385   1.280       .  A
O1380      C1385   1.280       .  A
C1381      C1908   1.478       .  S
O1382      C1384   1.269       .  A
O1383     Ni1394   1.923       .  S
C1384      O1390   1.272       .  A
C1384      C1948   1.483       .  S
C1385      C1931   1.483       .  S
H1386      O1387   0.966       .  S
O1387     Ni1395   1.917       .  S
O1387     Ni1389   1.918       .  S
O1387     Ni1394   1.901       .  S
O1388     Ni1389   1.941       .  S
Ni1389     O1393   1.913       .  S
Ni1389     O1391   1.910       .  S
O1390     Ni1395   1.931       .  S
C1392      O1393   1.269       .  A
C1392      C2011   1.489       .  S
O1397     Ni1403   1.935       .  S
O1397      C1418   1.275       .  A
O1398     Ni1421   1.930       .  S
O1398      C1407   1.270       .  A
O1399     Ni1403   1.890       .  S
O1399     Ni1421   1.910       .  S
O1399     Ni1415   1.909       .  S
O1399      H1422   0.966       .  S
C1400      O1417   1.277       .  A
C1400      O1409   1.279       .  A
C1400      C1941   1.482       .  S
O1401     Ni1420   1.920       .  S
O1401      C1407   1.268       .  A
O1402     Ni1420   1.894       .  S
O1402      C1404   1.266       .  A
Ni1403     O1406   1.922       .  S
Ni1403     O1408   1.901       .  S
C1404      O1414   1.273       .  A
C1404      C1888   1.481       .  S
O1405     Ni1421   1.927       .  S
O1405      C1411   1.280       .  A
O1406      C1411   1.280       .  A
C1407      C1868   1.478       .  S
O1408      C1410   1.269       .  A
O1409     Ni2092   1.922       .  S
C1410      O1416   1.272       .  A
C1410      C1898   1.477       .  S
C1411      C1951   1.485       .  S
H1412      O1413   0.966       .  S
O1413     Ni1421   1.913       .  S
O1413     Ni1415   1.904       .  S
O1413     Ni1420   1.890       .  S
O1414     Ni1415   1.935       .  S
Ni1415     O1419   1.911       .  S
Ni1415     O2089   1.919       .  S
O1416     Ni1421   1.924       .  S
O1417     Ni2087   1.919       .  S
C1418      O1419   1.269       .  A
C1418      C1878   1.486       .  S
Ni1420     O2081   1.922   1_545  S
O1423     Ni1429   1.935       .  S
O1423      C1444   1.273       .  A
O1424     Ni1447   1.921       .  S
O1424      C1433   1.268       .  A
O1425     Ni1429   1.894       .  S
O1425     Ni1447   1.906       .  S
O1425     Ni1441   1.905       .  S
O1425      H1448   0.966       .  S
C1426      O1443   1.274       .  A
C1426      O1435   1.279       .  A
C1426      C2530   1.481       .  S
O1427     Ni1446   1.929       .  S
O1427      C1433   1.270       .  A
O1428     Ni1446   1.898       .  S
O1428      C1430   1.267       .  A
Ni1429     O1432   1.923       .  S
Ni1429     O1434   1.905       .  S
C1430      O1440   1.273       .  A
C1430      C2001   1.482       .  S
O1431     Ni1447   1.925       .  S
O1431      C1437   1.279       .  A
O1432      C1437   1.280       .  A
C1433      C1838   1.475       .  S
O1434      C1436   1.269       .  A
O1435     Ni1446   1.931       .  S
C1436      O1442   1.272       .  A
C1436      C1991   1.480       .  S
C1437      C1848   1.484       .  S
H1438      O1439   0.966       .  S
O1439     Ni1447   1.911       .  S
O1439     Ni1441   1.913       .  S
O1439     Ni1446   1.900       .  S
O1440     Ni1441   1.937       .  S
Ni1441     O1445   1.914       .  S
Ni1441     O1443   1.910       .  S
O1442     Ni1447   1.926       .  S
C1444      O1445   1.268       .  A
C1444      C1881   1.480       .  S
O1449     Ni1455   1.935       .  S
O1449      C1470   1.274       .  A
O1450     Ni1473   1.926       .  S
O1450      C1459   1.269       .  A
O1451     Ni1455   1.893       .  S
O1451     Ni1473   1.906       .  S
O1451     Ni1467   1.902       .  S
O1451      H1474   0.966       .  S
C1452      C1981   1.478       .  S
O1453     Ni1472   1.925       .  S
O1453      C1459   1.270       .  A
O1454     Ni1472   1.895       .  S
O1454      C1456   1.268       .  A
Ni1455     O1458   1.920       .  S
Ni1455     O1460   1.906       .  S
C1456      O1466   1.276       .  A
C1456      C1861   1.486       .  S
O1457     Ni1473   1.926       .  S
O1457      C1463   1.280       .  A
O1458      C1463   1.280       .  A
C1459      C1818   1.477       .  S
O1460      C1462   1.269       .  A
O1461     Ni1472   1.922       .  S
C1462      O1468   1.271       .  A
C1462      C1851   1.480       .  S
C1463      C1971   1.480       .  S
H1464      O1465   0.966       .  S
O1465     Ni1473   1.914       .  S
O1465     Ni1467   1.912       .  S
O1465     Ni1472   1.895       .  S
O1466     Ni1467   1.942       .  S
Ni1467     O1471   1.911       .  S
Ni1467     O1469   1.913       .  S
O1468     Ni1473   1.926       .  S
C1470      O1471   1.268       .  A
C1470      C1831   1.482       .  S
O1475     Ni1481   1.929       .  S
O1475      C1496   1.273       .  A
O1476     Ni1499   1.926       .  S
O1476      C1485   1.269       .  A
O1477     Ni1481   1.891       .  S
O1477     Ni1499   1.907       .  S
O1477     Ni1493   1.906       .  S
O1477      H1500   0.966       .  S
C1478      C1891   1.478       .  S
O1479     Ni1498   1.923       .  S
O1479      C1485   1.268       .  A
O1480     Ni1498   1.892       .  S
O1480      C1482   1.266       .  A
Ni1481     O1484   1.915       .  S
Ni1481     O1486   1.904       .  S
C1482      O1492   1.274       .  A
C1482      C2593   1.482   1_545  S
O1483     Ni1499   1.926       .  S
O1483      C1489   1.280       .  A
O1484      C1489   1.278       .  A
C1485      C1808   1.474       .  S
O1486      C1488   1.269       .  A
O1487     Ni1498   1.927       .  S
C1488      O1494   1.271       .  A
C1488      C1928   1.479       .  S
C1489      C1901   1.481       .  S
H1490      O1491   0.966       .  S
O1491     Ni1499   1.910       .  S
O1491     Ni1493   1.906       .  S
O1491     Ni1498   1.891       .  S
O1492     Ni1493   1.940       .  S
Ni1493     O1497   1.915       .  S
Ni1493     O1495   1.910       .  S
O1494     Ni1499   1.925       .  S
C1496      O1497   1.269       .  A
C1496      C1828   1.483       .  S
O1501     Ni1507   1.922       .  S
O1501      C1522   1.267       .  A
O1502     Ni1525   1.920       .  S
O1502      C1511   1.269       .  A
O1503     Ni1507   1.905       .  S
O1503     Ni1525   1.915       .  S
O1503     Ni1519   1.912       .  S
O1503      H1526   0.966       .  S
C1504      O1521   1.278       .  A
C1504      O1513   1.279       .  A
C1504      C1781   1.484       .  S
O1505     Ni1524   1.938       .  S
O1505      C1511   1.274       .  A
O1506     Ni1524   1.902       .  S
O1506      C1508   1.269       .  A
Ni1507     O1510   1.928       .  S
Ni1507     O1512   1.894       .  S
C1508      O1518   1.275       .  A
C1508      C1758   1.485       .  S
O1509     Ni1525   1.904       .  S
O1509      C1515   1.272       .  A
O1510      C1515   1.277       .  A
C1511      C1798   1.492       .  S
O1512      C1514   1.266       .  A
O1513     Ni1524   1.924       .  S
C1514      O1520   1.273       .  A
C1514      C1768   1.481       .  S
C1515      C1788   1.472       .  S
H1516      O1517   0.966       .  S
O1517     Ni1525   1.907       .  S
O1517     Ni1519   1.916       .  S
O1517     Ni1524   1.897       .  S
O1518     Ni1519   1.935       .  S
Ni1519     O1523   1.930       .  S
Ni1519     O1521   1.921       .  S
O1520     Ni1525   1.939       .  S
C1522      O1523   1.270       .  A
C1522      C1961   1.477       .  S
O1527     Ni1533   1.919       .  S
O1527      C1548   1.267       .  A
O1528     Ni1551   1.915       .  S
O1528      C1537   1.268       .  A
O1529     Ni1533   1.899       .  S
O1529     Ni1551   1.912       .  S
O1529     Ni1545   1.913       .  S
O1529      H1552   0.966       .  S
C1530      O1547   1.280       .  A
C1530      O1539   1.281       .  A
C1530      C1748   1.486       .  S
O1531     Ni1550   1.944       .  S
O1531      C1537   1.276       .  A
O1532     Ni1550   1.903       .  S
O1532      C1534   1.270       .  A
Ni1533     O1536   1.923       .  S
Ni1533     O1538   1.894       .  S
C1534      O1544   1.273       .  A
C1534      C1728   1.481       .  S
O1535     Ni1551   1.915       .  S
O1535      C1541   1.275       .  A
O1536      C1541   1.278       .  A
C1537      C1801   1.489       .  S
O1538      C1540   1.266       .  A
O1539     Ni1550   1.929       .  S
C1540      O1546   1.271       .  A
C1540      C1718   1.478   1_655  S
C1541      C1738   1.478       .  S
H1542      O1543   0.966       .  S
O1543     Ni1551   1.909       .  S
O1543     Ni1545   1.914       .  S
O1543     Ni1550   1.894       .  S
O1544     Ni1545   1.929       .  S
Ni1545     O1549   1.935       .  S
Ni1545     O1547   1.924       .  S
O1546     Ni1551   1.933       .  S
C1548      O1549   1.271       .  A
C1548      C1911   1.481       .  S
O1553     Ni1559   1.919       .  S
O1553      C1574   1.268       .  A
O1554     Ni1577   1.910       .  S
O1554      C1563   1.266       .  A
O1555     Ni1559   1.895       .  S
O1555     Ni1577   1.908       .  S
O1555     Ni1571   1.915       .  S
O1555      H1578   0.966       .  S
C1556      O1573   1.280       .  A
C1556      O1565   1.280       .  A
C1556      C1731   1.482       .  S
O1557     Ni1576   1.937       .  S
O1557      C1563   1.275       .  A
O1558     Ni1576   1.902       .  S
O1558      C1560   1.269       .  A
Ni1559     O2234   1.921   1_545  S
Ni1559     O1564   1.896       .  S
C1560      O1570   1.273       .  A
C1560      C1708   1.482       .  S
O1561     Ni2249   1.912       .  S
O1561      C1567   1.273       .  A
O1562     Ni2231   1.921       .  S
O1562      C1567   1.278       .  A
C1563      C1688   1.486       .  S
O1564      C1566   1.267       .  A
O1565     Ni1576   1.925       .  S
C1566      O1572   1.272       .  A
C1566      C1698   1.477       .  S
C1567      C1721   1.477       .  S
H1568      O1569   0.966       .  S
O1569     Ni1577   1.905       .  S
O1569     Ni1571   1.913       .  S
O1569     Ni1576   1.892       .  S
O1570     Ni1571   1.931       .  S
Ni1571     O1575   1.934       .  S
Ni1571     O1573   1.924       .  S
O1572     Ni1577   1.930       .  S
C1574      O1575   1.271       .  A
C1574      C1871   1.478       .  S
Ni1577     O2233   1.912       .  S
O1579     Ni1585   1.927       .  S
O1579      C1600   1.270       .  A
O1580     Ni1603   1.919       .  S
O1580      C1589   1.269       .  A
O1581     Ni1585   1.903       .  S
O1581     Ni1603   1.913       .  S
O1581     Ni1597   1.916       .  S
O1581      H1604   0.970       .  S
C1582      O1599   1.280       .  A
C1582      O1591   1.279       .  A
C1582      C1668   1.485       .  S
O1583     Ni1602   1.929       .  S
O1583      C1589   1.273       .  A
O1584     Ni1602   1.905       .  S
O1584      C1586   1.269       .  A
Ni1585     O1588   1.934       .  S
Ni1585     O1590   1.896       .  S
C1586      O1596   1.272       .  A
C1586      C1778   1.481       .  S
O1587     Ni1603   1.912       .  S
O1587      C1593   1.274       .  A
O1588      C1593   1.279       .  A
C1589      C1691   1.481       .  S
O1590      C1592   1.267       .  A
O1591     Ni1602   1.920       .  S
C1592      O1598   1.274       .  A
C1592      C1791   1.480       .  S
C1593      C2350   1.485       .  S
H1594      O1595   0.966       .  S
O1595     Ni1603   1.908       .  S
O1595     Ni1597   1.906       .  S
O1595     Ni1602   1.895       .  S
O1596     Ni1597   1.927       .  S
Ni1597     O1601   1.923       .  S
Ni1597     O1599   1.927       .  S
O1598     Ni1603   1.935       .  S
C1600      O1601   1.269       .  A
C1600      C1841   1.474       .  S
O1605     Ni1611   1.922       .  S
O1605      C1626   1.269       .  A
O1606     Ni1629   1.915       .  S
O1606      C1615   1.270       .  A
O1607     Ni1611   1.894       .  S
O1607     Ni1629   1.906       .  S
O1607     Ni1623   1.917       .  S
O1607      H1630   0.966       .  S
C1608      O1625   1.282       .  A
C1608      O1617   1.282       .  A
C1608      C1761   1.487       .  S
O1609     Ni1628   1.939       .  S
O1609      C1615   1.276       .  A
O1610     Ni1628   1.907       .  S
O1610      C1612   1.269       .  A
Ni1611     O1614   1.926       .  S
Ni1611     O1616   1.899       .  S
C1612      O1622   1.272       .  A
C1612      C1671   1.482       .  S
O1613     Ni1629   1.912       .  S
C1615      C1658   1.487       .  S
O1616      C1618   1.268       .  A
O1617     Ni1628   1.927       .  S
C1618      O1624   1.277       .  A
C1618      C1681   1.488       .  S
C1619      C1771   1.478       .  S
H1620      O1621   0.966       .  S
O1621     Ni1629   1.904       .  S
O1621     Ni1623   1.905       .  S
O1621     Ni1628   1.891       .  S
O1622     Ni1623   1.927       .  S
Ni1623     O1627   1.930       .  S
Ni1623     O1625   1.929       .  S
O1624     Ni1629   1.943       .  S
C1626      O1627   1.271       .  A
C1626      C1821   1.476       .  S
O1631     Ni1637   1.926       .  S
O1631      C1652   1.270       .  A
O1632     Ni1655   1.917       .  S
O1632      C1641   1.269       .  A
O1633     Ni1637   1.902       .  S
O1633     Ni1655   1.914       .  S
O1633     Ni1649   1.912       .  S
O1633      H1656   0.967       .  S
C1634      O1651   1.279       .  A
C1634      O1643   1.280       .  A
C1634      C1711   1.484       .  S
O1635     Ni1654   1.935       .  S
O1635      C1641   1.274       .  A
O1636     Ni1654   1.907       .  S
O1636      C1638   1.269       .  A
Ni1637     O1640   1.927       .  S
Ni1637     O1642   1.895       .  S
C1638      O1648   1.272       .  A
C1638      C1751   1.481       .  S
O1639     Ni1655   1.904       .  S
C1641      C1661   1.488       .  S
O1642      C1644   1.267       .  A
O1643     Ni1654   1.923       .  S
C1644      O1650   1.275       .  A
C1644      C2413   1.483   1_545  S
C1645      C1701   1.474       .  S
H1646      O1647   0.966       .  S
O1647     Ni1655   1.904       .  S
O1647     Ni1649   1.907       .  S
O1647     Ni1654   1.896       .  S
O1648     Ni1649   1.927       .  S
Ni1649     O1653   1.920       .  S
Ni1649     O1651   1.923       .  S
O1650     Ni1655   1.941       .  S
C1652      O1653   1.268       .  A
C1652      C1811   1.473       .  S
C1657      C1662   1.410   1_456  A
C1657      H1663   1.083       .  S
C1658      C1659   1.404       .  A
C1659      C1660   1.395   1_556  A
C1659      H1664   1.083       .  S
C1660      H1665   1.083       .  S
C1661      C1662   1.409       .  A
C1662      H1666   1.083       .  S
C1667      C1668   1.407       .  A
C1667      C1672   1.401       .  A
C1667      H1673   1.083       .  S
C1668      C1669   1.407       .  A
C1669      C1670   1.396       .  A
C1669      H1674   1.083       .  S
C1670      C1671   1.405       .  A
C1670      H1675   1.083       .  S
C1671      C1672   1.406       .  A
C1672      H1676   1.083       .  S
C1677      C1678   1.409       .  A
C1677      C1682   1.404       .  A
C1677      H1683   1.083       .  S
C1678      C2265   1.485   1_545  S
C1678      C1679   1.404       .  A
C1679      C1680   1.396       .  A
C1679      H2356   1.083       .  S
C1680      C1681   1.409       .  A
C1680      H1685   1.083       .  S
C1681      C1682   1.405       .  A
C1682      H1686   1.083       .  S
H1684      C2351   1.083       .  S
C1687      C2360   1.410       .  A
C1687      C1692   1.410   1_554  A
C1687      H1693   1.083       .  S
C1688      C2359   1.410       .  A
C1688      C1689   1.404       .  A
C1689      C2362   1.390   1_544  A
C1689      H1694   1.083       .  S
C1690      C2361   1.391   1_556  A
C1690      C1691   1.402       .  A
C1690      H1695   1.083       .  S
C1691      C1692   1.408       .  A
C1692      H1696   1.083       .  S
C1697      C1698   1.405       .  A
C1697      C1702   1.400       .  A
C1697      H1703   1.083       .  S
C1698      C1699   1.406       .  A
C1699      C1700   1.392       .  A
C1699      H1704   1.083       .  S
C1700      C1701   1.402       .  A
C1701      C1702   1.407       .  A
C1702      H1706   1.083       .  S
C1707      C1708   1.406       .  A
C1707      C1712   1.402       .  A
C1707      H1713   1.083       .  S
C1708      C1709   1.406       .  A
C1709      C1710   1.394       .  A
C1709      H1714   1.083       .  S
C1710      C1711   1.405       .  A
C1710      H1715   1.083       .  S
C1711      C1712   1.408       .  A
C1712      H1716   1.083       .  S
C1717      C1722   1.401       .  A
C1719      C1720   1.392       .  A
C1719      H1724   1.083       .  S
C1720      C1721   1.402       .  A
C1720      H1725   1.083       .  S
C1721      C1722   1.409       .  A
C1722      H1726   1.083       .  S
C1727      C1728   1.407       .  A
C1727      C1732   1.403       .  A
C1727      H1733   1.083       .  S
C1728      C1729   1.404       .  A
C1729      C1730   1.394       .  A
C1729      H1734   1.083       .  S
C1730      C1731   1.405       .  A
C1730      H1735   1.083       .  S
C1731      C1732   1.407       .  A
C1732      H1736   1.083       .  S
C1737      C1738   1.403       .  A
C1737      C1742   1.393       .  A
C1737      H1743   1.083       .  S
C1738      C1739   1.407       .  A
C1739      C1740   1.402       .  A
C1739      H1744   1.083       .  S
C1740      C1741   1.406       .  A
C1740      H2417   1.083       .  S
C1741      C2316   1.483       .  S
C1741      C1742   1.407       .  A
C1742      H1746   1.083       .  S
H1745      C2412   1.083       .  S
C1747      C1748   1.408       .  A
C1747      C1752   1.402       .  A
C1747      H1753   1.083       .  S
C1748      C1749   1.406       .  A
C1749      C1750   1.396       .  A
C1749      H1754   1.083       .  S
C1750      C1751   1.405       .  A
C1750      H1755   1.083       .  S
C1751      C1752   1.406       .  A
C1752      H1756   1.083       .  S
C1757      C1758   1.406       .  A
C1757      C1762   1.404       .  A
C1757      H1763   1.083       .  S
C1758      C1759   1.406       .  A
C1759      C1760   1.396       .  A
C1759      H1764   1.083       .  S
C1760      C1761   1.406       .  A
C1760      H1765   1.083       .  S
C1761      C1762   1.408       .  A
C1762      H1766   1.083       .  S
C1767      C1768   1.404       .  A
C1767      C2444   1.401       .  A
C1767      H1773   1.083       .  S
C1768      C2441   1.407       .  A
C1769      C2440   1.407   1_545  A
C1769      C1770   1.394       .  A
C1769      H1774   1.083       .  S
C1770      C1771   1.402       .  A
C1770      H1775   1.083       .  S
C1771      C1772   1.408       .  A
C1772      C2439   1.401       .  A
C1777      C1778   1.405       .  A
C1777      C1782   1.394       .  A
C1777      H1783   1.083       .  S
C1778      C1779   1.407       .  A
C1779      C1780   1.402       .  A
C1779      H1784   1.083       .  S
C1780      C1781   1.407       .  A
C1780      H1785   1.083       .  S
C1781      C1782   1.406       .  A
C1782      H1786   1.083       .  S
C1787      C1788   1.401       .  A
C1787      C1792   1.395       .  A
C1787      H1793   1.083       .  S
C1788      C1789   1.405       .  A
C1789      C1790   1.398       .  A
C1789      H1794   1.083       .  S
C1792      H1796   1.083       .  S
C1797      C1798   1.406       .  A
C1797      C1802   1.396   1_556  A
C1797      H1803   1.083       .  S
C1798      C1799   1.410       .  A
C1799      C1800   1.411   1_556  A
C1799      H1804   1.083       .  S
C1800      C1801   1.409       .  A
C1800      H1805   1.083       .  S
C1801      C1802   1.404       .  A
C1802      H1806   1.083       .  S
C1807      C1808   1.405       .  A
C1807      C1812   1.406       .  A
C1807      H1813   1.083       .  S
C1808      C1809   1.403       .  A
C1809      C1810   1.394       .  A
C1809      H1814   1.084       .  S
C1810      C1811   1.402       .  A
C1810      H1815   1.084       .  S
C1811      C1812   1.406       .  A
C1812      H1816   1.083       .  S
C1817      C1818   1.402       .  A
C1817      C1822   1.393       .  A
C1817      H1823   1.084       .  S
C1818      C1819   1.407       .  A
C1819      C1820   1.409       .  A
C1819      H1824   1.083       .  S
C1820      C1821   1.407       .  A
C1820      H1825   1.083       .  S
C1821      C1822   1.403       .  A
C1822      H1826   1.084       .  S
C1827      C1832   1.406       .  A
C1827      H1833   1.083       .  S
C1828      C1829   1.405       .  A
C1829      C1830   1.394   1_655  A
C1829      H1834   1.083       .  S
C1830      H1835   1.083       .  S
C1831      C1832   1.407       .  A
C1832      H1836   1.083       .  S
C1837      C1838   1.402       .  A
C1837      C1842   1.394       .  A
C1837      H1843   1.084       .  S
C1838      C1839   1.406       .  A
C1839      C1840   1.407       .  A
C1839      H1844   1.083       .  S
C1840      C1841   1.406       .  A
C1840      H1845   1.083       .  S
C1841      C1842   1.403       .  A
C1842      H1846   1.084       .  S
C1847      C1848   1.408       .  A
C1847      C1852   1.401       .  A
C1847      H1853   1.083       .  S
C1848      C1849   1.406       .  A
C1849      C1850   1.395       .  A
C1849      H1854   1.083       .  S
C1850      C1851   1.404       .  A
C1850      H1855   1.083       .  S
C1851      C1852   1.406       .  A
C1852      H1856   1.083       .  S
C1857      C1858   1.402       .  A
C1857      C1862   1.393       .  A
C1857      H1863   1.083       .  S
C1858      C2098   1.480   1_545  S
C1858      C1859   1.408       .  A
C1859      C1860   1.404       .  A
C1859      H2536   1.083       .  S
C1860      C1861   1.407       .  A
C1860      H1865   1.083       .  S
C1861      C1862   1.408       .  A
C1862      H1866   1.083       .  S
H1864      C2531   1.083       .  S
C1867      C1868   1.403       .  A
C1867      C1872   1.392       .  A
C1867      H1873   1.084       .  S
C1868      C1869   1.407       .  A
C1869      C1870   1.410       .  A
C1869      H1874   1.083       .  S
C1870      C1871   1.407       .  A
C1870      H1875   1.083       .  S
C1871      C1872   1.403       .  A
C1872      H1876   1.084       .  S
C1877      C1878   1.406       .  A
C1877      C2554   1.394   1_545  A
C1877      H1883   1.083       .  S
C1878      C2551   1.409       .  A
C1879      C2550   1.409       .  A
C1879      C1880   1.407       .  A
C1879      H1884   1.083       .  S
C1880      C1881   1.406       .  A
C1880      H1885   1.083       .  S
C1881      C1882   1.402       .  A
C1882      C2549   1.394       .  A
C1882      H1886   1.084       .  S
C1887      C1888   1.407       .  A
C1887      C1892   1.392       .  A
C1887      H1893   1.083       .  S
C1888      C1889   1.405       .  A
C1889      C1890   1.402       .  A
C1889      H1894   1.083       .  S
C1890      C1891   1.408       .  A
C1891      C1892   1.402       .  A
C1892      H1896   1.083       .  S
C1897      C1898   1.406       .  A
C1897      C1902   1.400       .  A
C1897      H1903   1.083       .  S
C1898      C1899   1.404       .  A
C1899      C1900   1.391       .  A
C1899      H1904   1.083       .  S
C1900      C1901   1.406       .  A
C1900      H1905   1.083       .  S
C1901      C1902   1.407       .  A
C1902      H1906   1.083       .  S
C1907      C1908   1.402       .  A
C1907      C1912   1.394       .  A
C1907      H1913   1.084       .  S
C1908      C1909   1.407       .  A
C1909      C1910   1.409       .  A
C1909      H1914   1.083       .  S
C1910      C1911   1.407       .  A
C1910      H1915   1.083       .  S
C1911      C1912   1.404       .  A
C1912      H1916   1.084       .  S
C1917      C1918   1.407       .  A
C1917      C1922   1.403       .  A
C1917      H1923   1.083       .  S
C1918      C1919   1.401       .  A
C1919      C1920   1.393       .  A
C1919      H1924   1.083       .  S
C1920      C1921   1.407       .  A
C1920      H2597   1.083       .  S
C1921      C2154   1.481       .  S
C1921      C1922   1.406       .  A
C1922      H1926   1.083       .  S
H1925      C2592   1.083       .  S
C1927      C1928   1.403       .  A
C1927      C1932   1.392       .  A
C1927      H1933   1.083       .  S
C1928      C1929   1.407       .  A
C1929      C1930   1.402       .  A
C1929      H1934   1.083       .  S
C1930      C1931   1.407       .  A
C1930      H1935   1.083       .  S
C1931      C1932   1.406       .  A
C1932      H1936   1.083       .  S
C1937      C1942   1.403       .  A
C1939      C1940   1.392       .  A
C1939      H1944   1.083       .  S
C1940      C1941   1.403       .  A
C1940      H1945   1.083       .  S
C1941      C1942   1.409       .  A
C1942      H1946   1.083       .  S
C1947      C1948   1.407       .  A
C1947      C1952   1.405       .  A
C1947      H1953   1.083       .  S
C1948      C1949   1.404       .  A
C1949      C1950   1.392       .  A
C1949      H1954   1.083       .  S
C1950      C1951   1.405       .  A
C1950      H1955   1.083       .  S
C1951      C1952   1.409       .  A
C1952      H1956   1.083       .  S
C1957      C1958   1.406       .  A
C1957      C1962   1.408       .  A
C1957      H1963   1.083       .  S
C1958      C1959   1.402       .  A
C1959      C1960   1.394       .  A
C1959      H1964   1.084       .  S
C1960      C1961   1.404       .  A
C1960      H1965   1.084       .  S
C1961      C1962   1.406       .  A
C1962      H1966   1.083       .  S
C1967      C1968   1.406       .  A
C1967      C1972   1.401       .  A
C1967      H1973   1.083       .  S
C1968      C1969   1.402       .  A
C1969      C1970   1.393       .  A
C1969      H1974   1.083       .  S
C1970      C1971   1.406       .  A
C1970      H1975   1.083       .  S
C1971      C1972   1.407       .  A
C1972      H1976   1.083       .  S
C1977      C2650   1.406   1_545  A
C1977      C1982   1.391       .  A
C1977      H1983   1.083       .  S
C1978      C2649   1.406       .  A
C1978      C1979   1.406       .  A
C1979      C2652   1.404       .  A
C1979      H1984   1.083       .  S
C1980      C2651   1.404       .  A
C1980      C1981   1.408       .  A
C1981      C1982   1.402       .  A
C1982      H1986   1.083       .  S
C1987      C1988   1.408       .  A
C1987      C1992   1.403       .  A
C1987      H1993   1.083       .  S
C1988      C1989   1.406       .  A
C1989      C1990   1.393       .  A
C1989      H1994   1.083       .  S
C1990      C1991   1.404       .  A
C1990      H1995   1.083       .  S
C1991      C1992   1.407       .  A
C1992      H1996   1.083       .  S
C1997      C1998   1.406       .  A
C1997      C2002   1.401       .  A
C1997      H2003   1.083       .  S
C1998      C1999   1.402       .  A
C1999      C2000   1.394       .  A
C1999      H2004   1.083       .  S
C2000      H2005   1.083       .  S
C2007      C2008   1.405       .  A
C2007      C2012   1.398       .  A
C2007      H2013   1.083       .  S
C2008      C2009   1.407       .  A
C2009      C2010   1.407       .  A
C2009      H2014   1.083       .  S
C2010      C2011   1.408       .  A
C2010      H2015   1.083       .  S
C2011      C2012   1.407       .  A
C2012      H2016   1.083       .  S
O2017     Ni2023   1.942       .  S
O2017      C2038   1.275       .  A
O2018     Ni2041   1.924       .  S
O2018      C2027   1.268       .  A
O2019     Ni2023   1.895       .  S
O2019     Ni2041   1.909       .  S
O2019     Ni2035   1.902       .  S
O2019      H2042   0.966       .  S
C2020      O2037   1.273       .  A
C2020      O2029   1.277       .  A
C2020      C2670   1.476       .  S
O2021     Ni2040   1.925       .  S
O2021      C2027   1.269       .  A
O2022     Ni2040   1.896       .  S
O2022      C2024   1.268       .  A
Ni2023     O2026   1.924       .  S
Ni2023     O2028   1.904       .  S
C2024      O2034   1.274       .  A
C2024      C2650   1.481       .  S
O2025     Ni2041   1.926       .  S
O2025      C2031   1.280       .  A
O2026      C2031   1.280       .  A
C2027      C2630   1.475       .  S
O2028      C2030   1.269       .  A
O2029     Ni2040   1.924       .  S
C2030      O2036   1.269       .  A
C2030      C2640   1.475       .  S
C2031      C2660   1.484       .  S
H2032      O2033   0.966       .  S
O2033     Ni2041   1.915       .  S
O2033     Ni2035   1.914       .  S
O2033     Ni2040   1.899       .  S
O2034     Ni2035   1.937       .  S
Ni2035     O2039   1.911       .  S
Ni2035     O2037   1.911       .  S
O2036     Ni2041   1.921       .  S
C2038      O2039   1.268       .  A
C2038      C2680   1.486       .  S
O2043     Ni2049   1.939       .  S
O2043      C2064   1.274       .  A
O2044     Ni2067   1.928       .  S
O2044      C2053   1.269       .  A
O2045     Ni2049   1.894       .  S
O2045     Ni2067   1.911       .  S
O2045     Ni2061   1.901       .  S
O2045      H2068   0.966       .  S
C2046      O2063   1.271       .  A
C2046      O2055   1.276       .  A
C2046      C2590   1.476       .  S
O2047     Ni2066   1.924       .  S
O2047      C2053   1.269       .  A
O2048     Ni2066   1.895       .  S
O2048      C2050   1.268       .  A
Ni2049     O2052   1.921       .  S
Ni2049     O2054   1.901       .  S
C2050      O2060   1.275       .  A
C2050      C2610   1.483   1_655  S
O2051     Ni2067   1.925       .  S
O2051      C2057   1.280       .  A
O2052      C2057   1.280       .  A
C2053      C2580   1.478       .  S
O2054      C2056   1.269       .  A
O2055     Ni2066   1.924       .  S
C2056      O2062   1.272       .  A
C2056      C2620   1.482       .  S
C2057      C2603   1.483       .  S
H2058      O2059   0.966       .  S
O2059     Ni2067   1.917       .  S
O2059     Ni2061   1.919       .  S
O2059     Ni2066   1.901       .  S
O2060     Ni2061   1.941       .  S
Ni2061     O2065   1.913       .  S
Ni2061     O2063   1.910       .  S
O2062     Ni2067   1.931       .  S
C2064      O2065   1.269       .  A
C2064      C2683   1.489       .  S
O2069     Ni2075   1.935       .  S
O2069      C2090   1.275       .  A
O2070     Ni2093   1.930       .  S
O2070      C2079   1.270       .  A
O2071     Ni2075   1.890       .  S
O2071     Ni2093   1.910       .  S
O2071     Ni2087   1.909       .  S
O2071      H2094   0.966       .  S
C2072      O2089   1.277   1_565  A
C2072      O2081   1.279       .  A
C2072      C2613   1.482       .  S
O2073     Ni2092   1.920       .  S
O2073      C2079   1.267       .  A
O2074     Ni2092   1.894       .  S
O2074      C2076   1.266       .  A
Ni2075     O2078   1.922       .  S
Ni2075     O2080   1.901       .  S
C2076      O2086   1.273       .  A
C2076      C2560   1.481       .  S
O2077     Ni2093   1.927       .  S
O2077      C2083   1.280       .  A
O2078      C2083   1.280       .  A
C2079      C2540   1.478       .  S
O2080      C2082   1.269       .  A
C2082      O2088   1.272       .  A
C2082      C2570   1.477       .  S
C2083      C2623   1.485       .  S
H2084      O2085   0.966       .  S
O2085     Ni2093   1.913       .  S
O2085     Ni2087   1.904       .  S
O2085     Ni2092   1.890       .  S
O2086     Ni2087   1.935       .  S
Ni2087     O2091   1.912       .  S
O2088     Ni2093   1.924       .  S
C2090      O2091   1.269       .  A
C2090      C2550   1.486       .  S
O2095     Ni2101   1.935       .  S
O2095      C2116   1.273       .  A
O2096     Ni2119   1.921       .  S
O2096      C2105   1.268       .  A
O2097     Ni2101   1.894       .  S
O2097     Ni2119   1.907       .  S
O2097     Ni2113   1.905       .  S
O2097      H2120   0.966       .  S
C2098      O2115   1.274       .  A
C2098      O2107   1.279       .  A
O2099     Ni2118   1.929       .  S
O2099      C2105   1.271       .  A
O2100     Ni2118   1.898       .  S
O2100      C2102   1.267       .  A
Ni2101     O2104   1.922       .  S
Ni2101     O2106   1.904       .  S
C2102      O2112   1.273       .  A
C2102      C2673   1.482       .  S
O2103     Ni2119   1.925       .  S
O2103      C2109   1.279       .  A
O2104      C2109   1.280       .  A
C2105      C2510   1.475       .  S
O2106      C2108   1.269       .  A
O2107     Ni2118   1.931       .  S
C2108      O2114   1.272       .  A
C2108      C2663   1.480       .  S
C2109      C2520   1.484       .  S
H2110      O2111   0.966       .  S
O2111     Ni2119   1.911       .  S
O2111     Ni2113   1.913       .  S
O2111     Ni2118   1.900       .  S
O2112     Ni2113   1.938       .  S
Ni2113     O2117   1.914       .  S
Ni2113     O2115   1.910       .  S
O2114     Ni2119   1.926       .  S
C2116      O2117   1.268       .  A
C2116      C2553   1.480       .  S
O2121     Ni2127   1.935       .  S
O2121      C2142   1.274       .  A
O2122     Ni2145   1.926       .  S
O2122      C2131   1.269       .  A
O2123     Ni2127   1.893       .  S
O2123     Ni2145   1.906       .  S
O2123     Ni2139   1.902       .  S
O2123      H2146   0.966       .  S
C2124      C2653   1.478       .  S
O2125     Ni2144   1.925       .  S
O2125      C2131   1.270       .  A
O2126     Ni2144   1.895       .  S
O2126      C2128   1.268       .  A
Ni2127     O2130   1.920       .  S
Ni2127     O2132   1.906       .  S
C2128      O2138   1.276       .  A
C2128      C2533   1.486       .  S
O2129     Ni2145   1.926       .  S
O2129      C2135   1.280       .  A
O2130      C2135   1.280       .  A
C2131      C2490   1.477       .  S
O2132      C2134   1.269       .  A
O2133     Ni2144   1.922       .  S
C2134      O2140   1.271       .  A
C2134      C2523   1.480       .  S
C2135      C2643   1.480       .  S
H2136      O2137   0.966       .  S
O2137     Ni2145   1.914       .  S
O2137     Ni2139   1.912       .  S
O2137     Ni2144   1.895       .  S
O2138     Ni2139   1.942       .  S
Ni2139     O2143   1.911       .  S
Ni2139     O2141   1.912       .  S
O2140     Ni2145   1.926       .  S
C2142      O2143   1.268       .  A
C2142      C2503   1.482       .  S
O2147     Ni2153   1.930       .  S
O2147      C2168   1.273       .  A
O2148     Ni2171   1.926       .  S
O2148      C2157   1.269       .  A
O2149     Ni2153   1.891       .  S
O2149     Ni2171   1.907       .  S
O2149     Ni2165   1.906       .  S
O2149      H2172   0.966       .  S
C2150      C2563   1.478       .  S
O2151     Ni2170   1.923       .  S
O2151      C2157   1.268       .  A
O2152     Ni2170   1.892       .  S
O2152      C2154   1.266       .  A
Ni2153     O2156   1.915       .  S
Ni2153     O2158   1.904       .  S
C2154      O2164   1.274       .  A
O2155     Ni2171   1.926       .  S
O2155      C2161   1.280       .  A
O2156      C2161   1.278       .  A
C2157      C2480   1.474       .  S
O2158      C2160   1.269       .  A
O2159     Ni2170   1.926       .  S
C2160      O2166   1.271       .  A
C2160      C2600   1.479       .  S
C2161      C2573   1.481       .  S
H2162      O2163   0.966       .  S
O2163     Ni2171   1.910       .  S
O2163     Ni2165   1.906       .  S
O2163     Ni2170   1.891       .  S
O2164     Ni2165   1.939       .  S
Ni2165     O2169   1.915       .  S
Ni2165     O2167   1.910       .  S
O2166     Ni2171   1.925       .  S
C2168      O2169   1.269       .  A
C2168      C2500   1.483       .  S
O2173     Ni2179   1.922       .  S
O2173      C2194   1.267       .  A
O2174     Ni2197   1.920       .  S
O2174      C2183   1.269       .  A
O2175     Ni2179   1.905       .  S
O2175     Ni2197   1.915       .  S
O2175     Ni2191   1.912       .  S
O2175      H2198   0.966       .  S
C2176      O2193   1.278       .  A
C2176      O2185   1.279       .  A
C2176      C2453   1.484       .  S
O2177     Ni2196   1.938       .  S
O2177      C2183   1.274       .  A
O2178     Ni2196   1.902       .  S
O2178      C2180   1.269       .  A
Ni2179     O2182   1.929       .  S
Ni2179     O2184   1.894       .  S
C2180      O2190   1.275       .  A
C2180      C2430   1.485       .  S
O2181     Ni2197   1.904       .  S
O2181      C2187   1.272       .  A
O2182      C2187   1.277       .  A
C2183      C2470   1.492       .  S
O2184      C2186   1.266       .  A
O2185     Ni2196   1.923       .  S
C2186      O2192   1.274       .  A
C2186      C2440   1.481       .  S
C2187      C2460   1.472       .  S
H2188      O2189   0.966       .  S
O2189     Ni2197   1.907       .  S
O2189     Ni2191   1.916       .  S
O2189     Ni2196   1.897       .  S
O2190     Ni2191   1.935       .  S
Ni2191     O2195   1.930       .  S
Ni2191     O2193   1.922       .  S
O2192     Ni2197   1.939       .  S
C2194      O2195   1.270       .  A
C2194      C2633   1.477       .  S
O2199     Ni2205   1.919       .  S
O2199      C2220   1.267       .  A
O2200     Ni2223   1.915       .  S
O2200      C2209   1.268       .  A
O2201     Ni2205   1.899       .  S
O2201     Ni2223   1.912       .  S
O2201     Ni2217   1.913       .  S
O2201      H2224   0.966       .  S
C2202      O2219   1.280       .  A
C2202      O2211   1.281       .  A
C2202      C2420   1.486       .  S
O2203     Ni2222   1.944       .  S
O2203      C2209   1.276       .  A
O2204     Ni2222   1.903       .  S
O2204      C2206   1.270       .  A
Ni2205     O2208   1.923       .  S
Ni2205     O2210   1.894       .  S
C2206      O2216   1.273       .  A
C2206      C2400   1.481       .  S
O2207     Ni2223   1.915       .  S
O2207      C2213   1.275       .  A
O2208      C2213   1.278       .  A
C2209      C2473   1.489       .  S
O2210      C2212   1.266       .  A
O2211     Ni2222   1.929       .  S
C2212      O2218   1.271       .  A
C2212      C2390   1.479   1_655  S
C2213      C2410   1.479       .  S
H2214      O2215   0.966       .  S
O2215     Ni2223   1.909       .  S
O2215     Ni2217   1.914       .  S
O2215     Ni2222   1.894       .  S
O2216     Ni2217   1.929       .  S
Ni2217     O2221   1.935       .  S
Ni2217     O2219   1.925       .  S
O2218     Ni2223   1.933       .  S
C2220      O2221   1.271       .  A
C2220      C2583   1.481       .  S
O2225     Ni2231   1.919       .  S
O2225      C2246   1.268       .  A
O2226     Ni2249   1.910       .  S
O2226      C2235   1.266       .  A
O2227     Ni2231   1.895       .  S
O2227     Ni2249   1.908       .  S
O2227     Ni2243   1.915       .  S
O2227      H2250   0.966       .  S
C2228      O2245   1.280       .  A
C2228      O2237   1.280       .  A
C2228      C2403   1.482       .  S
O2229     Ni2248   1.937       .  S
O2229      C2235   1.275       .  A
O2230     Ni2248   1.902       .  S
O2230      C2232   1.269       .  A
Ni2231     O2236   1.897       .  S
C2232      O2242   1.273       .  A
C2232      C2380   1.482       .  S
O2233      C2239   1.273   1_545  A
O2234      C2239   1.278       .  A
C2235      C2360   1.486       .  S
O2236      C2238   1.267       .  A
O2237     Ni2248   1.924       .  S
C2238      O2244   1.272       .  A
C2238      C2370   1.477       .  S
C2239      C2393   1.478       .  S
H2240      O2241   0.966       .  S
O2241     Ni2249   1.905       .  S
O2241     Ni2243   1.913       .  S
O2241     Ni2248   1.892       .  S
O2242     Ni2243   1.931       .  S
Ni2243     O2247   1.934       .  S
Ni2243     O2245   1.924       .  S
O2244     Ni2249   1.930       .  S
C2246      O2247   1.271       .  A
C2246      C2543   1.479       .  S
O2251     Ni2257   1.927       .  S
O2251      C2272   1.270       .  A
O2252     Ni2275   1.919       .  S
O2252      C2261   1.268       .  A
O2253     Ni2257   1.903       .  S
O2253     Ni2275   1.913       .  S
O2253     Ni2269   1.916       .  S
O2253      H2276   0.970       .  S
C2254      O2271   1.280       .  A
C2254      O2263   1.279       .  A
C2254      C2340   1.485       .  S
O2255     Ni2274   1.928       .  S
O2255      C2261   1.273       .  A
O2256     Ni2274   1.905       .  S
O2256      C2258   1.269       .  A
Ni2257     O2260   1.934       .  S
Ni2257     O2262   1.897       .  S
C2258      O2268   1.272       .  A
C2258      C2450   1.482       .  S
O2259     Ni2275   1.912       .  S
O2259      C2265   1.274       .  A
O2260      C2265   1.279       .  A
C2261      C2363   1.481       .  S
O2262      C2264   1.267       .  A
O2263     Ni2274   1.920       .  S
C2264      O2270   1.274       .  A
C2264      C2463   1.480       .  S
H2266      O2267   0.966       .  S
O2267     Ni2275   1.908       .  S
O2267     Ni2269   1.906       .  S
O2267     Ni2274   1.895       .  S
O2268     Ni2269   1.927       .  S
Ni2269     O2273   1.923       .  S
Ni2269     O2271   1.927       .  S
O2270     Ni2275   1.935       .  S
C2272      O2273   1.269       .  A
C2272      C2513   1.475       .  S
O2277     Ni2283   1.922       .  S
O2277      C2298   1.269       .  A
O2278     Ni2301   1.915       .  S
O2278      C2287   1.270       .  A
O2279     Ni2283   1.894       .  S
O2279     Ni2301   1.906       .  S
O2279     Ni2295   1.916       .  S
O2279      H2302   0.966       .  S
C2280      O2297   1.282       .  A
C2280      O2289   1.282       .  A
C2280      C2433   1.487       .  S
O2281     Ni2300   1.939       .  S
O2281      C2287   1.276       .  A
O2282     Ni2300   1.907       .  S
O2282      C2284   1.269       .  A
Ni2283     O2286   1.925       .  S
Ni2283     O2288   1.899       .  S
C2284      O2294   1.272       .  A
C2284      C2343   1.482       .  S
O2285     Ni2301   1.912       .  S
C2287      C2330   1.487       .  S
O2288      C2290   1.268       .  A
O2289     Ni2300   1.926       .  S
C2290      O2296   1.277       .  A
C2290      C2353   1.488       .  S
C2291      C2443   1.478       .  S
H2292      O2293   0.966       .  S
O2293     Ni2301   1.904       .  S
O2293     Ni2295   1.905       .  S
O2293     Ni2300   1.891       .  S
O2294     Ni2295   1.927       .  S
Ni2295     O2299   1.930       .  S
Ni2295     O2297   1.929       .  S
O2296     Ni2301   1.943       .  S
C2298      O2299   1.271       .  A
C2298      C2493   1.476       .  S
O2303     Ni2309   1.927       .  S
O2303      C2324   1.270       .  A
O2304     Ni2327   1.917       .  S
O2304      C2313   1.269       .  A
O2305     Ni2309   1.902       .  S
O2305     Ni2327   1.914       .  S
O2305     Ni2321   1.912       .  S
O2305      H2328   0.967       .  S
C2306      O2323   1.279       .  A
C2306      O2315   1.280       .  A
C2306      C2383   1.484       .  S
O2307     Ni2326   1.935       .  S
O2307      C2313   1.274       .  A
O2308     Ni2326   1.907       .  S
O2308      C2310   1.269       .  A
Ni2309     O2312   1.927       .  S
Ni2309     O2314   1.895       .  S
C2310      O2320   1.272       .  A
C2310      C2423   1.481       .  S
O2311     Ni2327   1.904       .  S
C2313      C2333   1.488       .  S
O2314      C2316   1.267       .  A
O2315     Ni2326   1.923       .  S
C2316      O2322   1.275       .  A
C2317      C2373   1.474       .  S
H2318      O2319   0.966       .  S
O2319     Ni2327   1.904       .  S
O2319     Ni2321   1.907       .  S
O2319     Ni2326   1.896       .  S
O2320     Ni2321   1.927       .  S
Ni2321     O2325   1.920       .  S
Ni2321     O2323   1.923       .  S
O2322     Ni2327   1.941       .  S
C2324      O2325   1.268       .  A
C2324      C2483   1.473       .  S
C2329      C2334   1.410   1_456  A
C2329      H2335   1.083       .  S
C2330      C2331   1.404       .  A
C2331      C2332   1.395   1_556  A
C2331      H2336   1.083       .  S
C2332      H2337   1.083       .  S
C2333      C2334   1.409       .  A
C2334      H2338   1.083       .  S
C2339      C2340   1.407       .  A
C2339      C2344   1.401       .  A
C2339      H2345   1.083       .  S
C2340      C2341   1.407       .  A
C2341      C2342   1.396       .  A
C2341      H2346   1.083       .  S
C2342      C2343   1.405       .  A
C2342      H2347   1.083       .  S
C2343      C2344   1.406       .  A
C2344      H2348   1.083       .  S
C2349      C2350   1.409       .  A
C2349      C2354   1.404       .  A
C2349      H2355   1.083       .  S
C2350      C2351   1.404       .  A
C2351      C2352   1.396       .  A
C2352      C2353   1.409       .  A
C2352      H2357   1.083       .  S
C2353      C2354   1.405       .  A
C2354      H2358   1.083       .  S
C2359      C2364   1.410   1_544  A
C2359      H2365   1.083       .  S
C2360      C2361   1.404       .  A
C2361      H2366   1.083       .  S
C2362      C2363   1.402       .  A
C2362      H2367   1.083       .  S
C2363      C2364   1.408       .  A
C2364      H2368   1.083       .  S
C2369      C2370   1.405       .  A
C2369      C2374   1.400       .  A
C2369      H2375   1.083       .  S
C2370      C2371   1.406       .  A
C2371      C2372   1.392       .  A
C2371      H2376   1.083       .  S
C2372      C2373   1.402       .  A
C2373      C2374   1.407       .  A
C2374      H2378   1.083       .  S
C2379      C2380   1.406       .  A
C2379      C2384   1.402       .  A
C2379      H2385   1.083       .  S
C2380      C2381   1.406       .  A
C2381      C2382   1.394       .  A
C2381      H2386   1.083       .  S
C2382      C2383   1.405       .  A
C2382      H2387   1.083       .  S
C2383      C2384   1.408       .  A
C2384      H2388   1.083       .  S
C2389      C2394   1.401       .  A
C2391      C2392   1.392       .  A
C2391      H2396   1.083       .  S
C2392      C2393   1.402       .  A
C2392      H2397   1.083       .  S
C2393      C2394   1.409       .  A
C2394      H2398   1.083       .  S
C2399      C2400   1.407       .  A
C2399      C2404   1.403       .  A
C2399      H2405   1.083       .  S
C2400      C2401   1.404       .  A
C2401      C2402   1.394       .  A
C2401      H2406   1.083       .  S
C2402      C2403   1.405       .  A
C2402      H2407   1.083       .  S
C2403      C2404   1.407       .  A
C2404      H2408   1.083       .  S
C2409      C2410   1.403       .  A
C2409      C2414   1.393       .  A
C2409      H2415   1.083       .  S
C2410      C2411   1.407       .  A
C2411      C2412   1.402       .  A
C2411      H2416   1.083       .  S
C2412      C2413   1.406       .  A
C2413      C2414   1.407       .  A
C2414      H2418   1.083       .  S
C2419      C2420   1.408       .  A
C2419      C2424   1.402       .  A
C2419      H2425   1.083       .  S
C2420      C2421   1.406       .  A
C2421      C2422   1.396       .  A
C2421      H2426   1.083       .  S
C2422      C2423   1.405       .  A
C2422      H2427   1.083       .  S
C2423      C2424   1.406       .  A
C2424      H2428   1.083       .  S
C2429      C2430   1.406       .  A
C2429      C2434   1.404       .  A
C2429      H2435   1.083       .  S
C2430      C2431   1.406       .  A
C2431      C2432   1.396       .  A
C2431      H2436   1.083       .  S
C2432      C2433   1.406       .  A
C2432      H2437   1.083       .  S
C2433      C2434   1.408       .  A
C2434      H2438   1.083       .  S
C2439      C2440   1.404   1_545  A
C2439      H2445   1.083   1_545  S
C2441      C2442   1.394       .  A
C2441      H2446   1.083       .  S
C2442      C2443   1.402       .  A
C2442      H2447   1.083       .  S
C2443      C2444   1.408       .  A
C2449      C2450   1.405       .  A
C2449      C2454   1.394       .  A
C2449      H2455   1.083       .  S
C2450      C2451   1.407       .  A
C2451      C2452   1.402       .  A
C2451      H2456   1.083       .  S
C2452      C2453   1.407       .  A
C2452      H2457   1.083       .  S
C2453      C2454   1.406       .  A
C2454      H2458   1.083       .  S
C2459      C2460   1.401       .  A
C2459      C2464   1.395       .  A
C2459      H2465   1.083       .  S
C2460      C2461   1.405       .  A
C2461      C2462   1.398       .  A
C2461      H2466   1.083       .  S
C2464      H2468   1.083       .  S
C2469      C2470   1.406       .  A
C2469      C2474   1.396   1_556  A
C2469      H2475   1.083       .  S
C2470      C2471   1.410       .  A
C2471      C2472   1.411   1_556  A
C2471      H2476   1.083       .  S
C2472      C2473   1.409       .  A
C2472      H2477   1.083       .  S
C2473      C2474   1.404       .  A
C2474      H2478   1.083       .  S
C2479      C2480   1.405       .  A
C2479      C2484   1.406       .  A
C2479      H2485   1.083       .  S
C2480      C2481   1.403       .  A
C2481      C2482   1.394       .  A
C2481      H2486   1.084       .  S
C2482      C2483   1.402       .  A
C2482      H2487   1.084       .  S
C2483      C2484   1.406       .  A
C2484      H2488   1.083       .  S
C2489      C2490   1.402       .  A
C2489      C2494   1.393       .  A
C2489      H2495   1.084       .  S
C2490      C2491   1.407       .  A
C2491      C2492   1.409       .  A
C2491      H2496   1.083       .  S
C2492      C2493   1.406       .  A
C2492      H2497   1.083       .  S
C2493      C2494   1.403       .  A
C2494      H2498   1.084       .  S
C2499      C2504   1.407       .  A
C2499      H2505   1.083       .  S
C2500      C2501   1.405       .  A
C2501      C2502   1.394   1_655  A
C2501      H2506   1.083       .  S
C2502      H2507   1.083       .  S
C2503      C2504   1.407       .  A
C2504      H2508   1.083       .  S
C2509      C2510   1.402       .  A
C2509      C2514   1.394       .  A
C2509      H2515   1.084       .  S
C2510      C2511   1.406       .  A
C2511      C2512   1.407       .  A
C2511      H2516   1.083       .  S
C2512      C2513   1.406       .  A
C2512      H2517   1.083       .  S
C2513      C2514   1.403       .  A
C2514      H2518   1.084       .  S
C2519      C2520   1.408       .  A
C2519      C2524   1.401       .  A
C2519      H2525   1.083       .  S
C2520      C2521   1.406       .  A
C2521      C2522   1.394       .  A
C2521      H2526   1.083       .  S
C2522      C2523   1.404       .  A
C2522      H2527   1.083       .  S
C2523      C2524   1.406       .  A
C2524      H2528   1.083       .  S
C2529      C2530   1.402       .  A
C2529      C2534   1.393       .  A
C2529      H2535   1.083       .  S
C2530      C2531   1.408       .  A
C2531      C2532   1.404       .  A
C2532      C2533   1.407       .  A
C2532      H2537   1.083       .  S
C2533      C2534   1.408       .  A
C2534      H2538   1.083       .  S
C2539      C2540   1.403       .  A
C2539      C2544   1.392       .  A
C2539      H2545   1.084       .  S
C2540      C2541   1.407       .  A
C2541      C2542   1.410       .  A
C2541      H2546   1.083       .  S
C2542      C2543   1.407       .  A
C2542      H2547   1.083       .  S
C2543      C2544   1.403       .  A
C2544      H2548   1.084       .  S
C2549      C2550   1.406       .  A
C2549      H2555   1.083       .  S
C2551      C2552   1.407   1_545  A
C2551      H2556   1.083       .  S
C2552      C2553   1.406       .  A
C2552      H2557   1.083       .  S
C2553      C2554   1.402       .  A
C2554      H2558   1.084       .  S
C2559      C2560   1.407       .  A
C2559      C2564   1.392       .  A
C2559      H2565   1.083       .  S
C2560      C2561   1.405       .  A
C2561      C2562   1.402       .  A
C2561      H2566   1.083       .  S
C2562      C2563   1.408       .  A
C2563      C2564   1.402       .  A
C2564      H2568   1.083       .  S
C2569      C2570   1.406       .  A
C2569      C2574   1.400       .  A
C2569      H2575   1.083       .  S
C2570      C2571   1.404       .  A
C2571      C2572   1.391       .  A
C2571      H2576   1.083       .  S
C2572      C2573   1.406       .  A
C2572      H2577   1.083       .  S
C2573      C2574   1.407       .  A
C2574      H2578   1.083       .  S
C2579      C2580   1.402       .  A
C2579      C2584   1.394       .  A
C2579      H2585   1.084       .  S
C2580      C2581   1.407       .  A
C2581      C2582   1.410       .  A
C2581      H2586   1.083       .  S
C2582      C2583   1.407       .  A
C2582      H2587   1.083       .  S
C2583      C2584   1.404       .  A
C2584      H2588   1.084       .  S
C2589      C2590   1.407       .  A
C2589      C2594   1.403       .  A
C2589      H2595   1.083       .  S
C2590      C2591   1.401       .  A
C2591      C2592   1.393       .  A
C2591      H2596   1.083       .  S
C2592      C2593   1.407       .  A
C2593      C2594   1.406       .  A
C2594      H2598   1.083       .  S
C2599      C2600   1.403       .  A
C2599      C2604   1.392       .  A
C2599      H2605   1.083       .  S
C2600      C2601   1.406       .  A
C2601      C2602   1.402       .  A
C2601      H2606   1.083       .  S
C2602      C2603   1.407       .  A
C2602      H2607   1.083       .  S
C2603      C2604   1.406       .  A
C2604      H2608   1.083       .  S
C2609      C2614   1.403       .  A
C2611      C2612   1.392       .  A
C2611      H2616   1.083       .  S
C2612      C2613   1.403       .  A
C2612      H2617   1.083       .  S
C2613      C2614   1.409       .  A
C2614      H2618   1.083       .  S
C2619      C2620   1.407       .  A
C2619      C2624   1.405       .  A
C2619      H2625   1.083       .  S
C2620      C2621   1.404       .  A
C2621      C2622   1.392       .  A
C2621      H2626   1.083       .  S
C2622      C2623   1.405       .  A
C2622      H2627   1.083       .  S
C2623      C2624   1.409       .  A
C2624      H2628   1.083       .  S
C2629      C2630   1.406       .  A
C2629      C2634   1.408       .  A
C2629      H2635   1.083       .  S
C2630      C2631   1.402       .  A
C2631      C2632   1.394       .  A
C2631      H2636   1.084       .  S
C2632      C2633   1.404       .  A
C2632      H2637   1.084       .  S
C2633      C2634   1.406       .  A
C2634      H2638   1.083       .  S
C2639      C2640   1.406       .  A
C2639      C2644   1.401       .  A
C2639      H2645   1.083       .  S
C2640      C2641   1.402       .  A
C2641      C2642   1.393       .  A
C2641      H2646   1.083       .  S
C2642      C2643   1.406       .  A
C2642      H2647   1.083       .  S
C2643      C2644   1.407       .  A
C2644      H2648   1.083       .  S
C2649      C2654   1.391       .  A
C2649      H2655   1.083       .  S
C2650      C2651   1.406   1_565  A
C2651      H2656   1.083   1_545  S
C2652      C2653   1.408       .  A
C2653      C2654   1.402       .  A
C2654      H2658   1.083       .  S
C2659      C2660   1.408       .  A
C2659      C2664   1.403       .  A
C2659      H2665   1.083       .  S
C2660      C2661   1.406       .  A
C2661      C2662   1.393       .  A
C2661      H2666   1.083       .  S
C2662      C2663   1.404       .  A
C2662      H2667   1.083       .  S
C2663      C2664   1.407       .  A
C2664      H2668   1.083       .  S
C2669      C2670   1.406       .  A
C2669      C2674   1.401       .  A
C2669      H2675   1.083       .  S
C2670      C2671   1.402       .  A
C2671      C2672   1.394       .  A
C2671      H2676   1.083       .  S
C2672      H2677   1.083       .  S
C2679      C2680   1.405       .  A
C2679      C2684   1.398       .  A
C2679      H2685   1.083       .  S
C2680      C2681   1.407       .  A
C2681      C2682   1.407       .  A
C2681      H2686   1.083       .  S
C2682      C2683   1.408       .  A
C2682      H2687   1.083       .  S
C2683      C2684   1.407       .  A
C2684      H2688   1.083       .  S
