geometry optimzed in LAMMPS
_audit_creation_date              2020-12-01 
_audit_creation_method            'lammps2cif' 
_symmetry_space_group_name_H-M    'P1' 
_symmetry_Int_Tables_number       1 
_symmetry_cell_setting            triclinic 
loop_ 
_symmetry_equiv_pos_as_xyz 
  x,y,z 
_cell_length_a                    37.45072039 
_cell_length_b                    37.48080707364247 
_cell_length_c                    50.099303618585374 
_cell_angle_alpha                 89.96478748872859 
_cell_angle_beta                  90.00484000531532 
_cell_angle_gamma                 90.03215830818206 
loop_ 
_atom_site_label 
_atom_site_type_symbol 
_atom_site_fract_x 
_atom_site_fract_y 
_atom_site_fract_z 
_atom_site_charge 
O1          O  0.89233254  0.17656126  0.89809502    -0.84900
O2          O  0.92579268  0.22580382  0.92860415    -0.82000
C3          C  0.94897586  0.23734823  0.94457513     0.98500
O4          O  0.98159229  0.23070932  0.94012003    -0.82000
O5          O  0.99526196  0.15893675  0.94814580    -0.84700
C6          C  0.99402642  0.12564961  0.94453007     1.03000
O7          O  0.99005911  0.11321803  0.92151032    -0.77400
O8          O  0.92056736  0.13079585  0.91517766    -0.77600
C9          C  0.89333800  0.15035835  0.91403766     1.03000
O10         O  0.93506874  0.19813730  0.85244922    -0.84900
O11         O  0.96719557  0.25098047  0.88436604    -0.82000
C12         C  0.00096465  0.25277902  0.88276704     0.98500
O13         O  0.01983061  0.22679145  0.89025974    -0.82000
O14         O  0.03849169  0.15719197  0.90055379    -0.84600
C15         C  0.03597886  0.13795037  0.87979724     1.03000
O16         O  0.00591481  0.13257421  0.86882554    -0.77500
O17         O  0.93211637  0.14082557  0.85947731    -0.77600
C18         C  0.92705562  0.16720663  0.84436927     1.03000
Cr19       Cr  0.93324595  0.21029632  0.89129626     1.93700
Cr20       Cr  0.00566252  0.19244689  0.91822213     1.93200
Cr21       Cr  0.96230590  0.13329776  0.89157289     1.39100
O22         O  0.96739258  0.17904656  0.89994416    -1.22700
O23         O  0.83510449  0.12202490  0.60601698    -0.84900
O24         O  0.78804168  0.08384992  0.57708197    -0.82000
C25         C  0.77990230  0.06029912  0.56030933     0.98500
O26         O  0.78961210  0.02837937  0.56425965    -0.82000
O27         O  0.86175209  0.02269848  0.55625916    -0.84700
C28         C  0.89477826  0.02653453  0.55975707     1.03000
O29         O  0.90707681  0.03061094  0.58281753    -0.77400
O30         O  0.88317018  0.09808193  0.58849515    -0.77600
C31         C  0.86135975  0.12345242  0.58990071     1.03000
O32         O  0.81900421  0.07615755  0.65258883    -0.84900
O33         O  0.76845840  0.03950336  0.62143323    -0.82000
C34         C  0.76998093  0.00560162  0.62177145     0.98500
O35         O  0.79742877  0.98962535  0.61360488    -0.82000
O36         O  0.86842824  0.97913100  0.60405942    -0.84600
C37         C  0.88627066  0.98377398  0.62536419     1.03000
O38         O  0.88888386  0.01441667  0.63587871    -0.77500
O39         O  0.87482688  0.08763137  0.64407414    -0.77600
C40         C  0.84927383  0.08680588  0.66034741     1.03000
Cr41       Cr  0.80534887  0.07777295  0.61393149     1.93700
Cr42       Cr  0.83001374  0.00809661  0.58607797     1.93200
Cr43       Cr  0.88466327  0.05705558  0.61251822     1.39100
O44         O  0.83954323  0.04729933  0.60452548    -1.22700
O45         O  0.11394563  0.89794891  0.11279750    -0.84900
O46         O  0.06010233  0.91835176  0.08054286    -0.82000
C47         C  0.03316649  0.91730020  0.06573761     0.98500
O48         O  0.01169343  0.89128506  0.06655312    -0.82000
O49         O  0.04778303  0.82969776  0.05219882    -0.84700
C50         C  0.07069003  0.80508028  0.05308066     1.03000
O51         O  0.08182743  0.79364803  0.07536340    -0.77400
O52         O  0.12348003  0.84902718  0.09030078    -0.77600
C53         C  0.13141060  0.88094307  0.09530931     1.03000
O54         O  0.06067188  0.87975839  0.15295281    -0.84900
O55         O  0.00770558  0.90671661  0.12059295    -0.82000
C56         C  0.98027498  0.88698657  0.11979061     0.98500
O57         O  0.98257212  0.85522573  0.11149361    -0.82000
O58         O  0.01435546  0.79157172  0.09522066    -0.84600
C59         C  0.02655588  0.77576900  0.11568186     1.03000
O60         O  0.05280671  0.78862311  0.12847525    -0.77500
O61         O  0.10291062  0.84076755  0.14571973    -0.77600
C62         C  0.08713969  0.86242852  0.16119440     1.03000
Cr63       Cr  0.06011961  0.89702848  0.11600860     1.93700
Cr64       Cr  0.01714768  0.84257961  0.08299260     1.93200
Cr65       Cr  0.08769449  0.82046931  0.10986405     1.39100
O66         O  0.05459938  0.85325079  0.10320010    -1.22700
O67         O  0.13071355  0.91374194  0.39773151    -0.84900
O68         O  0.10811319  0.96718661  0.42898512    -0.82000
C69         C  0.10694740  0.99546247  0.44216717     0.98500
O70         O  0.13062761  0.01923015  0.43939203    -0.82000
O71         O  0.19603085  0.98884156  0.45207619    -0.84700
C72         C  0.22312644  0.96897556  0.45053267     1.03000
O73         O  0.23440558  0.95993244  0.42776220    -0.77400
O74         O  0.18164030  0.91057716  0.41888427    -0.77600
C75         C  0.15031597  0.89914160  0.41526654     1.03000
O76         O  0.13982012  0.96537702  0.35478598    -0.84900
O77         O  0.11100417  0.01827438  0.38626751    -0.82000
C78         C  0.12863014  0.04712824  0.38466483     0.98500
O79         O  0.16088257  0.04787162  0.39190528    -0.82000
O80         O  0.22754289  0.02355176  0.40567914    -0.84600
C81         C  0.24154933  0.01166798  0.38437958     1.03000
O82         O  0.23047722  0.98302498  0.37379436    -0.77500
O83         O  0.18285209  0.92709742  0.36196346    -0.77600
C84         C  0.15953626  0.94060433  0.34660378     1.03000
Cr85       Cr  0.12579027  0.96702244  0.39244814     1.93700
Cr86       Cr  0.17840523  0.01683104  0.42102669     1.93200
Cr87       Cr  0.20473009  0.94717711  0.39583477     1.39100
O88         O  0.16966780  0.97747959  0.40267979    -1.22700
O89         O  0.35055404  0.90583544  0.90032746    -0.84900
O90         O  0.30801360  0.94088166  0.93503422    -0.82000
C91         C  0.29905938  0.96449054  0.95154656     0.98500
O92         O  0.30318943  0.99693913  0.94531765    -0.82000
O93         O  0.37572658  0.00874686  0.94781831    -0.84700
C94         C  0.40841587  0.00713000  0.94204268     1.03000
O95         O  0.41827454  0.00205671  0.91837549    -0.77400
O96         O  0.39925592  0.93306606  0.91334671    -0.77600
C97         C  0.37918095  0.90623487  0.91384972     1.03000
O98         O  0.32219976  0.94926852  0.85675910    -0.84900
O99         O  0.27523506  0.98203142  0.89247392    -0.82000
C100        C  0.27397241  0.01581610  0.89038701     0.98500
O101        O  0.30100295  0.03467416  0.89556504    -0.82000
O102        O  0.37263973  0.05130731  0.90015866    -0.84600
C103        C  0.38883671  0.04796019  0.87804634     1.03000
O104        O  0.39154477  0.01771988  0.86701802    -0.77500
O105        O  0.38050387  0.94487712  0.85838577    -0.77600
C106        C  0.35160167  0.94230193  0.84559997     1.03000
Cr107      Cr  0.31646817  0.94738464  0.89634530     1.93700
Cr108      Cr  0.33893569  0.01978399  0.92058289     1.93200
Cr109      Cr  0.39358210  0.97466894  0.88994452     1.39100
O110        O  0.34927063  0.98097421  0.90181569    -1.22700
O111        O  0.39094356  0.84354361  0.59006402    -0.84900
O112        O  0.43402472  0.78748200  0.57658205    -0.82000
C113        C  0.45119533  0.79560976  0.55559249     0.98500
O114        O  0.47545286  0.81888832  0.55624960    -0.82000
O115        O  0.50735215  0.88185683  0.57062290    -0.84700
C116        C  0.48451787  0.90573077  0.56544441     1.03000
O117        O  0.45656345  0.90845203  0.57929314    -0.77400
O118        O  0.40037829  0.89225644  0.61252155    -0.77600
C119        C  0.38213713  0.87505172  0.59581101     1.03000
O120        O  0.40956892  0.83551494  0.64635792    -0.84900
O121        O  0.45726591  0.78187159  0.63146221    -0.82000
C122        C  0.48561040  0.76891872  0.62183388     0.98500
O123        O  0.50222237  0.78463116  0.60321043    -0.82000
O124        O  0.53122290  0.85023519  0.61956200    -0.84600
C125        C  0.53223392  0.88285961  0.62598484     1.03000
O126        O  0.50474340  0.90173847  0.62276617    -0.77500
O127        O  0.44984995  0.87674397  0.65410633    -0.77600
C128        C  0.42459226  0.85734093  0.66227863     1.03000
Cr129      Cr  0.42567973  0.81462492  0.61087314     1.93700
Cr130      Cr  0.50064156  0.83468350  0.58901705     1.93200
Cr131      Cr  0.45353053  0.89100742  0.61636629     1.39100
O132        O  0.46020626  0.84641615  0.60567802    -1.22700
O133        O  0.63480684  0.12105100  0.11763533    -0.84900
O134        O  0.61264428  0.06991485  0.08415994    -0.82000
C135        C  0.61278374  0.04368980  0.06870768     0.98500
O136        O  0.63692077  0.02018385  0.07015022    -0.82000
O137        O  0.70158071  0.05151540  0.05804166    -0.84700
C138        C  0.72743418  0.07292366  0.05961926     1.03000
O139        O  0.73848234  0.08341756  0.08211236    -0.77400
O140        O  0.68430659  0.12770675  0.09540125    -0.77600
C141        C  0.65264003  0.13716256  0.09986665     1.03000
O142        O  0.64815746  0.06574531  0.15731772    -0.84900
O143        O  0.61836278  0.01550836  0.12375245    -0.82000
C144        C  0.63649281  0.98699413  0.12324278     0.98500
O145        O  0.66861931  0.98751278  0.11569944    -0.82000
O146        O  0.73459233  0.01491994  0.10194640    -0.84600
C147        C  0.75060111  0.02642643  0.12251206     1.03000
O148        O  0.73973317  0.05407417  0.13469279    -0.77500
O149        O  0.68923074  0.10638757  0.15121680    -0.77600
C150        C  0.66634466  0.09129722  0.16614692     1.03000
Cr151      Cr  0.63207380  0.06730835  0.12011964     1.93700
Cr152      Cr  0.68493656  0.02157398  0.08806644     1.93200
Cr153      Cr  0.71030130  0.09056441  0.11572350     1.39100
O154        O  0.67596224  0.05929717  0.10828562    -1.22700
O155        O  0.60131438  0.13453728  0.39671601    -0.84900
O156        O  0.54574208  0.11382098  0.42689084    -0.82000
C157        C  0.51827360  0.11468816  0.44113772     0.98500
O158        O  0.49691858  0.14081558  0.43959239    -0.82000
O159        O  0.53336614  0.20218842  0.45476339    -0.84700
C160        C  0.55554844  0.22748885  0.45426541     1.03000
O161        O  0.56657911  0.23929706  0.43208731    -0.77400
O162        O  0.60962519  0.18353148  0.41961441    -0.77600
C163        C  0.61763081  0.15155549  0.41486116     1.03000
O164        O  0.55095921  0.15250461  0.35447865    -0.84900
O165        O  0.49538451  0.12620889  0.38491390    -0.82000
C166        C  0.46851222  0.14681706  0.38479960     0.98500
O167        O  0.47093365  0.17813918  0.39377251    -0.82000
O168        O  0.50187686  0.24082823  0.41067441    -0.84600
C169        C  0.51446903  0.25541230  0.38980976     1.03000
O170        O  0.54148801  0.24245097  0.37809060    -0.77500
O171        O  0.59311197  0.19097517  0.36350128    -0.77600
C172        C  0.57811554  0.16970896  0.34734349     1.03000
Cr173      Cr  0.54780153  0.13525524  0.39143210     1.93700
Cr174      Cr  0.50378617  0.18980182  0.42329917     1.93200
Cr175      Cr  0.57527899  0.21167807  0.39838526     1.39100
O176        O  0.54191114  0.17894457  0.40407768    -1.22700
O177        O  0.61415098  0.35576085  0.91905692    -0.84900
O178        O  0.57677372  0.29625868  0.93515357    -0.82000
C179        C  0.56349442  0.30560517  0.95737170     0.98500
O180        O  0.53947275  0.32908235  0.95803765    -0.82000
O181        O  0.49837327  0.38673358  0.94374055    -0.84700
C182        C  0.51945401  0.41293820  0.94570588     1.03000
O183        O  0.54424779  0.41741607  0.92924936    -0.77400
O184        O  0.59881885  0.40293450  0.89597149    -0.77600
C185        C  0.61977753  0.38770492  0.91225301     1.03000
O186        O  0.59314281  0.34458607  0.86433095    -0.84900
O187        O  0.54868965  0.28889246  0.88185927    -0.82000
C188        C  0.52322835  0.27388073  0.89410375     0.98500
O189        O  0.50979480  0.28796219  0.91480611    -0.82000
O190        O  0.47237196  0.34758634  0.89854941    -0.84600
C191        C  0.46682884  0.37858059  0.88967813     1.03000
O192        O  0.49193178  0.40130069  0.88928805    -0.77500
O193        O  0.54745420  0.37917578  0.85633959    -0.77600
C194        C  0.57511069  0.36347046  0.84816257     1.03000
Cr195      Cr  0.58039721  0.32356239  0.90040751     1.93700
Cr196      Cr  0.50796598  0.33886234  0.92708063     1.93200
Cr197      Cr  0.54531828  0.39665710  0.89352011     1.39100
O198        O  0.54427510  0.35289762  0.90678949    -1.22700
O199        O  0.66162962  0.40120255  0.60775145    -0.84900
O200        O  0.70804562  0.43621350  0.57566250    -0.82000
C201        C  0.71772182  0.46018083  0.55962270     0.98500
O202        O  0.71066115  0.49257414  0.56440893    -0.82000
O203        O  0.63834459  0.50396598  0.55989150    -0.84700
C204        C  0.60540084  0.50270653  0.56484671     1.03000
O205        O  0.59481815  0.49870776  0.58842079    -0.77400
O206        O  0.61391246  0.42867530  0.59288571    -0.77600
C207        C  0.63368235  0.40148461  0.59345295     1.03000
O208        O  0.68565958  0.44304257  0.65318141    -0.84900
O209        O  0.73566256  0.47758368  0.61957629    -0.82000
C210        C  0.73668480  0.51142961  0.62100168     0.98500
O211        O  0.71026168  0.53022623  0.61432612    -0.82000
O212        O  0.63904206  0.54664876  0.60801793    -0.84600
C213        C  0.62225003  0.54315837  0.62992171     1.03000
O214        O  0.61903894  0.51262152  0.64057279    -0.77500
O215        O  0.62807443  0.43881273  0.64803189    -0.77600
C216        C  0.65542424  0.43391466  0.66217695     1.03000
Cr217      Cr  0.69518719  0.44260840  0.61374347     1.93700
Cr218      Cr  0.67373858  0.51518929  0.58823839     1.93200
Cr219      Cr  0.61783672  0.47003097  0.61692439     1.39100
O220        O  0.66276471  0.47623331  0.60672526    -1.22700
O221        O  0.38101946  0.61335121  0.39283989    -0.84900
O222        O  0.40240621  0.55756240  0.42259886    -0.82000
C223        C  0.40120973  0.53008481  0.43681637     0.98500
O224        O  0.37596119  0.50782035  0.43463712    -0.82000
O225        O  0.31287772  0.54054046  0.45000388    -0.84700
C226        C  0.28714361  0.56226437  0.44971206     1.03000
O227        O  0.27659731  0.57524223  0.42781049    -0.77400
O228        O  0.33225447  0.61974786  0.41611504    -0.77600
C229        C  0.36417941  0.62870246  0.41154340     1.03000
O230        O  0.36420461  0.56343556  0.34988173    -0.84900
O231        O  0.39222090  0.50805281  0.38025020    -0.82000
C232        C  0.37285579  0.48031592  0.37944991     0.98500
O233        O  0.34101450  0.48176904  0.38760874    -0.82000
O234        O  0.27668452  0.50992748  0.40483612    -0.84600
C235        C  0.26078010  0.52376256  0.38501856     1.03000
O236        O  0.27314401  0.55151183  0.37378519    -0.77500
O237        O  0.32414606  0.60376497  0.35953967    -0.77600
C238        C  0.34473214  0.58907629  0.34272721     1.03000
Cr239      Cr  0.38129266  0.55992400  0.38705326     1.93700
Cr240      Cr  0.32736899  0.51313997  0.41779834     1.93200
Cr241      Cr  0.30418118  0.58523141  0.39439061     1.39100
O242        O  0.33751441  0.55238811  0.39949839    -1.22700
O243        O  0.40672552  0.63919128  0.10947089    -0.84900
O244        O  0.46447284  0.62088499  0.08049418    -0.82000
C245        C  0.49346383  0.62238022  0.06804162     0.98500
O246        O  0.51480363  0.64807700  0.07160845    -0.82000
O247        O  0.48082457  0.71104536  0.05661496    -0.84700
C248        C  0.45780712  0.73565010  0.05676897     1.03000
O249        O  0.44394871  0.74568481  0.07849528    -0.77400
O250        O  0.40065200  0.68925988  0.08785506    -0.77600
C251        C  0.39249510  0.65691780  0.09080787     1.03000
O252        O  0.45368339  0.65395751  0.15421428    -0.84900
O253        O  0.51125853  0.62924264  0.12485872    -0.82000
C254        C  0.53813217  0.64952078  0.12727821     0.98500
O255        O  0.53622355  0.68168280  0.12011198    -0.82000
O256        O  0.50860640  0.74555687  0.10323400    -0.84600
C257        C  0.49422498  0.76012215  0.12331574     1.03000
O258        O  0.46558857  0.74768365  0.13322603    -0.77500
O259        O  0.41389657  0.69484996  0.14513855    -0.77600
C260        C  0.42779362  0.67302007  0.16148660     1.03000
Cr261      Cr  0.45963727  0.63950966  0.11670581     1.93700
Cr262      Cr  0.50688728  0.69577240  0.08916609     1.93200
Cr263      Cr  0.43336066  0.71678082  0.11117396     1.39100
O264        O  0.46696362  0.68416525  0.10603240    -1.22700
O265        O  0.17082726  0.63078316  0.89478953    -0.84900
O266        O  0.21734063  0.59442648  0.92609652    -0.82000
C267        C  0.22726725  0.57117976  0.94262418     0.98500
O268        O  0.21675087  0.53932187  0.93983069    -0.82000
O269        O  0.14454919  0.53534379  0.94973364    -0.84700
C270        C  0.11153640  0.54021476  0.94673222     1.03000
O271        O  0.09849584  0.54325662  0.92376242    -0.77400
O272        O  0.12250379  0.60926219  0.91344446    -0.77600
C273        C  0.14487464  0.63398811  0.91089066     1.03000
O274        O  0.18648147  0.58114005  0.85110452    -0.84900
O275        O  0.23616118  0.54698651  0.88373756    -0.82000
C276        C  0.23522421  0.51314174  0.88459309     0.98500
O277        O  0.20758766  0.49726742  0.89292275    -0.82000
O278        O  0.13517073  0.48827209  0.90457739    -0.84600
C279        C  0.11638659  0.49140041  0.88356978     1.03000
O280        O  0.11473213  0.52085934  0.87131175    -0.77500
O281        O  0.12994497  0.59183804  0.85825976    -0.77600
C282        C  0.15616567  0.59036171  0.84259097     1.03000
Cr283      Cr  0.19984466  0.58574554  0.88947316     1.93700
Cr284      Cr  0.17515343  0.51809482  0.92002484     1.93200
Cr285      Cr  0.12026896  0.56567877  0.89201058     1.39100
O286        O  0.16546184  0.55612373  0.90011382    -1.22700
O287        O  0.11068546  0.66416663  0.60247376    -0.84900
O288        O  0.08010919  0.71430532  0.57052960    -0.82000
C289        C  0.05753491  0.72248708  0.55291226     0.98500
O290        O  0.02496780  0.71494536  0.55649271    -0.82000
O291        O  0.00788832  0.64308923  0.55673632    -0.84700
C292        C  0.00539117  0.61120632  0.56459551     1.03000
O293        O  0.00595690  0.60510614  0.58904253    -0.77400
O294        O  0.07930428  0.61731664  0.58990850    -0.77600
C295        C  0.10799431  0.63524295  0.58928631     1.03000
O296        O  0.07102552  0.69344928  0.64817632    -0.84900
O297        O  0.04087766  0.74437772  0.61426182    -0.82000
C298        C  0.00722730  0.74851363  0.61385082     0.98500
O299        O  0.98700895  0.72385902  0.60573919    -0.82000
O300        O  0.96506134  0.65455581  0.60500942    -0.84600
C301        C  0.96731050  0.64044155  0.62808184     1.03000
O302        O  0.99762991  0.63517831  0.63883036    -0.77500
O303        O  0.07291538  0.63585621  0.64419776    -0.77600
C304        C  0.07847241  0.66329205  0.65787767     1.03000
Cr305      Cr  0.07254119  0.70158399  0.60858230     1.93700
Cr306      Cr  0.99927116  0.68318372  0.58251108     1.93200
Cr307      Cr  0.03908914  0.62715033  0.61466110     1.39100
O308        O  0.03680735  0.67140768  0.60216910    -1.22700
O309        O  0.91697940  0.40451925  0.41227249    -0.84900
O310        O  0.98803340  0.41300173  0.41964927    -0.82000
C311        C  0.98917797  0.40020188  0.44286082     0.98500
O312        O  0.98764994  0.36703556  0.44657987    -0.82000
O313        O  0.97189868  0.29638269  0.43802595    -0.84700
C314        C  0.93943874  0.29406906  0.44464341     1.03000
O315        O  0.91618045  0.30861598  0.43006404    -0.77400
O316        O  0.88515306  0.35946882  0.39830075    -0.77600
C317        C  0.88739404  0.38863072  0.41122530     1.03000
O318        O  0.92798346  0.38952927  0.35716606    -0.84900
O319        O  0.00207725  0.39085615  0.36657509    -0.82000
C320        C  0.03172814  0.38582030  0.37813547     0.98500
O321        O  0.03263050  0.36776740  0.39958325    -0.82000
O322        O  0.00902148  0.29905373  0.38834090    -0.84600
C323        C  0.98777281  0.27427079  0.38197557     1.03000
O324        O  0.95419810  0.27815737  0.38498577    -0.77500
O325        O  0.92503199  0.33146386  0.35269442    -0.77600
C326        C  0.92091243  0.36242029  0.34326602     1.03000
Cr327      Cr  0.95873916  0.39564627  0.38935741     1.93700
Cr328      Cr  0.99740213  0.33387127  0.41661739     1.93200
Cr329      Cr  0.92312997  0.32160125  0.39185257     1.39100
O330        O  0.95982167  0.35003794  0.39882048    -1.22700
O331        O  0.87783286  0.42061622  0.10687521    -0.84900
O332        O  0.89974869  0.47653821  0.07713125    -0.82000
C333        C  0.89976440  0.50546910  0.06459254     0.98500
O334        O  0.87534652  0.52829075  0.06806747    -0.82000
O335        O  0.81011083  0.49790136  0.05449717    -0.84700
C336        C  0.78349760  0.47723531  0.05534732     1.03000
O337        O  0.77317300  0.46555888  0.07771408    -0.77400
O338        O  0.82725259  0.41755332  0.08530377    -0.77600
C339        C  0.85885358  0.40686887  0.08861448     1.03000
O340        O  0.86737842  0.46951943  0.15130839    -0.84900
O341        O  0.89548321  0.52473769  0.12109618    -0.82000
C342        C  0.87762953  0.55332233  0.12337442     0.98500
O343        O  0.84513651  0.55361349  0.11668273    -0.82000
O344        O  0.77871919  0.52851844  0.10215378    -0.84600
C345        C  0.76470787  0.51458802  0.12272738     1.03000
O346        O  0.77645905  0.48570909  0.13239393    -0.77500
O347        O  0.82516527  0.43099783  0.14279240    -0.77600
C348        C  0.84702105  0.44491326  0.15912705     1.03000
Cr349      Cr  0.88164325  0.47362632  0.11362631     1.93700
Cr350      Cr  0.82783199  0.52393566  0.08655181     1.93200
Cr351      Cr  0.80319227  0.45206102  0.10933759     1.39100
O352        O  0.83752470  0.48363587  0.10350904    -1.22700
C353        C  0.85615777  0.38095134  0.21859151    -0.05100
C354        C  0.86937849  0.40411028  0.23844960     0.09100
C355        C  0.87110562  0.44106178  0.23324312    -0.02400
C356        C  0.86151492  0.45457561  0.20791701    -0.00700
C357        C  0.85089731  0.43112295  0.18713636    -0.04300
C358        C  0.84686373  0.39427607  0.19307435     0.02700
C359        C  0.88136698  0.38978571  0.26501651     0.09500
C360        C  0.88311757  0.46522323  0.25401030     0.35400
C361        C  0.83372388  0.36967967  0.17301598     0.38900
C362        C  0.91575624  0.37471561  0.26793765    -0.04700
C363        C  0.92787232  0.36334922  0.29330797     0.02500
C364        C  0.90616931  0.36811866  0.31604920    -0.04300
C365        C  0.87160759  0.38278135  0.31304009    -0.00500
C366        C  0.85904001  0.39293471  0.28757258    -0.03100
C367        C  0.93925323  0.37246612  0.24500663     0.36200
C368        C  0.84915795  0.38821324  0.33627818     0.39800
C369        C  0.96327613  0.34822267  0.29624074     0.38900
C370        C  0.82336352  0.40744531  0.28458688     0.35800
C371        C  0.85224866  0.34326573  0.22451316     0.36500
C372        C  0.86154003  0.49289539  0.20363413     0.39800
N373        N  0.99149312  0.33606706  0.29862727    -0.38300
N374        N  0.95804272  0.37095470  0.22670534    -0.39900
N375        N  0.83113527  0.39285047  0.35471027    -0.37600
N376        N  0.79491658  0.41903371  0.28213051    -0.40000
N377        N  0.89258905  0.48445080  0.27063512    -0.39800
N378        N  0.86131905  0.52344702  0.20025407    -0.37400
N379        N  0.82286194  0.34997103  0.15719503    -0.38500
N380        N  0.84908161  0.31323146  0.22933592    -0.40100
C381        C  0.01391363  0.51670981  0.53815076    -0.05100
C382        C  0.99468097  0.51886741  0.51417717     0.09100
C383        C  0.97849582  0.55122567  0.50641981    -0.02400
C384        C  0.98211076  0.58184363  0.52258743    -0.00700
C385        C  0.00221731  0.58006374  0.54643432    -0.04300
C386        C  0.01827578  0.54713235  0.55403004     0.02700
C387        C  0.99345916  0.48702615  0.49663479     0.09500
C388        C  0.95791563  0.55279284  0.48193629     0.35400
C389        C  0.04008380  0.54404344  0.57792915     0.38900
C390        C  0.96399968  0.46360214  0.49763927    -0.04700
C391        C  0.96382785  0.43271633  0.48169975     0.02500
C392        C  0.99316639  0.42534099  0.46499744    -0.04300
C393        C  0.02362892  0.44730980  0.46553464    -0.00500
C394        C  0.02363393  0.47846606  0.48103074    -0.03100
C395        C  0.93398451  0.47140135  0.51497688     0.36200
C396        C  0.05495310  0.43722773  0.45024933     0.39800
C397        C  0.93320565  0.40908444  0.48190415     0.38900
C398        C  0.05450840  0.50187338  0.48089918     0.35800
C399        C  0.02928311  0.48284296  0.54644938     0.36500
C400        C  0.96418121  0.61462730  0.51508610     0.39800
N401        N  0.90884644  0.39011591  0.48217948    -0.38300
N402        N  0.91008665  0.47759364  0.52886378    -0.39900
N403        N  0.07966407  0.42814396  0.43817679    -0.37600
N404        N  0.07902881  0.52067295  0.48097500    -0.40000
N405        N  0.94133965  0.55400307  0.46246117    -0.39800
N406        N  0.94980139  0.64077478  0.50914291    -0.37400
N407        N  0.05731465  0.54098894  0.59697831    -0.38500
N408        N  0.04138835  0.45581920  0.55299686    -0.40100
C409        C  0.05235540  0.50364896  0.00081892    -0.05100
C410        C  0.02688909  0.53127473  0.00289190     0.09100
C411        C  0.03255737  0.56398237  0.98983744    -0.02400
C412        C  0.06181869  0.56797622  0.97261904    -0.00700
C413        C  0.08664823  0.53977715  0.96948616    -0.04300
C414        C  0.08270696  0.50823176  0.98460375     0.02700
C415        C  0.99371856  0.52589284  0.01860609     0.09500
C416        C  0.00743447  0.59314565  0.99344234     0.35400
C417        C  0.10805186  0.47923651  0.98161477     0.38900
C418        C  0.99564942  0.52447155  0.04660192    -0.04700
C419        C  0.96482463  0.51714559  0.06147906     0.02500
C420        C  0.93137433  0.51416337  0.04853246    -0.04300
C421        C  0.92900382  0.51824582  0.02065495    -0.00500
C422        C  0.96038023  0.52275075  0.00556165    -0.03100
C423        C  0.02938985  0.53088892  0.06006724     0.36200
C424        C  0.89459545  0.51725023  0.00744240     0.39800
C425        C  0.96791647  0.51244912  0.09013673     0.38900
C426        C  0.95848150  0.52368826  0.97663728     0.35800
C427        C  0.04632621  0.46988931  0.01428454     0.36500
C428        C  0.06486377  0.60079640  0.95748742     0.39800
N429        N  0.97124051  0.50826878  0.11288257    -0.38300
N430        N  0.05627835  0.53619529  0.07073586    -0.39900
N431        N  0.86733226  0.51689220  0.99658476    -0.37600
N432        N  0.95697636  0.52443181  0.95356990    -0.40000
N433        N  0.98733075  0.61628912  0.99621234    -0.39800
N434        N  0.06518504  0.62758026  0.94600032    -0.37400
N435        N  0.12822839  0.45609045  0.97918886    -0.38500
N436        N  0.04139699  0.44300600  0.02505015    -0.40100
C437        C  0.09556952  0.66997421  0.73314876    -0.05100
C438        C  0.12159421  0.64316237  0.73672281     0.09100
C439        C  0.13539823  0.62518400  0.71438152    -0.02400
C440        C  0.12170504  0.63215088  0.68872922    -0.00700
C441        C  0.09501790  0.65869680  0.68486759    -0.04300
C442        C  0.08240565  0.67789299  0.70730570     0.02700
C443        C  0.13104844  0.62996108  0.76404640     0.09500
C444        C  0.16285136  0.59825504  0.71807134     0.35400
C445        C  0.05346080  0.70323577  0.70432236     0.38900
C446        C  0.11180530  0.60106145  0.77492891    -0.04700
C447        C  0.12161857  0.58658847  0.79981970     0.02500
C448        C  0.15041540  0.60135991  0.81439886    -0.04300
C449        C  0.17027166  0.62975933  0.80316692    -0.00500
C450        C  0.16059823  0.64397262  0.77802134    -0.03100
C451        C  0.08169549  0.58624667  0.76040734     0.36200
C452        C  0.19983625  0.64520088  0.81785601     0.39800
C453        C  0.10236342  0.55587068  0.81001815     0.38900
C454        C  0.18073084  0.67324298  0.76656787     0.35800
C455        C  0.08130178  0.68828363  0.75628791     0.36500
C456        C  0.13391176  0.61009776  0.66673836     0.39800
N457        N  0.08667031  0.53124468  0.81755305    -0.38300
N458        N  0.05765874  0.57454827  0.74882099    -0.39900
N459        N  0.22346320  0.65744351  0.82959797    -0.37600
N460        N  0.19673012  0.69664593  0.75738413    -0.40000
N461        N  0.18477355  0.57688722  0.72111604    -0.39800
N462        N  0.14315020  0.59153303  0.64963292    -0.37400
N463        N  0.03000550  0.72311670  0.70216411    -0.38500
N464        N  0.06993696  0.70282288  0.77480030    -0.40100
C465        C  0.63638993  0.62422141  0.12432920    -0.05100
C466        C  0.63795329  0.59605728  0.14297186     0.09100
C467        C  0.60794458  0.58848735  0.15900355    -0.02400
C468        C  0.57547283  0.60682110  0.15477766    -0.00700
C469        C  0.57329618  0.63410700  0.13524529    -0.04300
C470        C  0.60446216  0.64349056  0.12069078     0.02700
C471        C  0.66964949  0.57169872  0.14295300     0.09500
C472        C  0.61035471  0.56099361  0.17930208     0.35400
C473        C  0.60328079  0.67095788  0.10023650     0.38900
C474        C  0.70284891  0.58324798  0.15318304    -0.04700
C475        C  0.73401842  0.56310189  0.14828206     0.02500
C476        C  0.73194856  0.53115319  0.13347420    -0.04300
C477        C  0.69841161  0.51832292  0.12494743    -0.00500
C478        C  0.66735907  0.53858996  0.12957908    -0.03100
C479        C  0.70507033  0.61667973  0.16762972     0.36200
C480        C  0.69613160  0.48541912  0.10977671     0.39800
C481        C  0.76841288  0.57580142  0.15761802     0.38900
C482        C  0.63333161  0.52647692  0.11904895     0.35800
C483        C  0.66716598  0.63199195  0.10766033     0.36500
C484        C  0.54413694  0.59662950  0.16998871     0.39800
N485        N  0.79585878  0.58589267  0.16509598    -0.38300
N486        N  0.70679522  0.64345091  0.17905549    -0.39900
N487        N  0.69416117  0.45925525  0.09760929    -0.37600
N488        N  0.60616387  0.51690344  0.11067734    -0.40000
N489        N  0.61243899  0.53911622  0.19553652    -0.39800
N490        N  0.51916622  0.58799713  0.18197623    -0.37400
N491        N  0.60236354  0.69280482  0.08390983    -0.38500
N492        N  0.69168614  0.63813348  0.09436846    -0.40100
C493        C  0.29375495  0.56475111  0.00138490    -0.05100
C494        C  0.29716597  0.60073291  0.00899603     0.09100
C495        C  0.27874261  0.62719897  0.99456379    -0.02400
C496        C  0.25668770  0.61789570  0.97276838    -0.00700
C497        C  0.25169386  0.58140516  0.96548014    -0.04300
C498        C  0.27085434  0.55493274  0.98012827     0.02700
C499        C  0.32268989  0.61153396  0.03067396     0.09500
C500        C  0.28337688  0.66444676  0.00183987     0.35400
C501        C  0.26844542  0.51746748  0.97306216     0.38900
C502        C  0.35633542  0.62531057  0.02366132    -0.04700
C503        C  0.37905027  0.63947999  0.04340193     0.02500
C504        C  0.36877817  0.63944550  0.07066217    -0.04300
C505        C  0.33617636  0.62303504  0.07788192    -0.00500
C506        C  0.31291275  0.60971390  0.05787946    -0.03100
C507        C  0.36754863  0.62495476  0.99588953     0.36200
C508        C  0.32629182  0.62009539  0.10573219     0.39800
C509        C  0.41349909  0.65303459  0.03518169     0.38900
C510        C  0.27860190  0.59469205  0.06513188     0.35800
C511        C  0.31515436  0.53792147  0.01482622     0.36500
C512        C  0.24005799  0.64665932  0.95785911     0.39800
N513        N  0.44062358  0.66309278  0.02716585    -0.38300
N514        N  0.37654068  0.62458698  0.97379207    -0.39900
N515        N  0.31820749  0.61709833  0.12790856    -0.42400
N516        N  0.25115644  0.58265648  0.07077385    -0.40000
N517        N  0.28731459  0.69409930  0.00758347    -0.39800
N518        N  0.22747508  0.67002689  0.94604469    -0.37400
N519        N  0.26660188  0.48751434  0.96758763    -0.38500
N520        N  0.33250326  0.51663000  0.02538665    -0.40100
C521        C  0.23652143  0.55621789  0.51598078    -0.05100
C522        C  0.22440463  0.59163796  0.51887087     0.09100
C523        C  0.23642520  0.61801543  0.50095894    -0.02400
C524        C  0.25775777  0.60861202  0.47888198    -0.00700
C525        C  0.26825695  0.57264453  0.47486413    -0.04300
C526        C  0.25874264  0.54676553  0.49424702     0.02700
C527        C  0.19499282  0.60048555  0.53808998     0.09500
C528        C  0.22589331  0.65489514  0.50486393     0.35400
C529        C  0.26993555  0.50997986  0.49110775     0.38900
C530        C  0.20239309  0.61266914  0.56412890    -0.04700
C531        C  0.17430023  0.62429294  0.58097157     0.02500
C532        C  0.13831380  0.62271757  0.57213273    -0.04300
C533        C  0.13135348  0.61095432  0.54572052    -0.00500
C534        C  0.15943733  0.59976730  0.52898021    -0.03100
C535        C  0.23908756  0.61396119  0.57328989     0.36200
C536        C  0.09594629  0.61387822  0.53429499     0.39800
C537        C  0.18288578  0.63900794  0.60692621     0.38900
C538        C  0.15191717  0.58902448  0.50168742     0.35800
C539        C  0.22496407  0.52930666  0.53489638     0.36500
C540        C  0.26862525  0.63633183  0.46034091     0.39800
N541        N  0.19025791  0.65121255  0.62741596    -0.38300
N542        N  0.26839640  0.61492007  0.58057439    -0.39900
N543        N  0.06852665  0.61656396  0.52389376    -0.37600
N544        N  0.14592672  0.58078696  0.47988635    -0.40000
N545        N  0.21781271  0.68439659  0.50792168    -0.39800
N546        N  0.27687889  0.65887427  0.44579540    -0.37400
N547        N  0.27893976  0.48063056  0.48865840    -0.38500
N548        N  0.21571288  0.50788528  0.55004068    -0.40100
C549        C  0.16478212  0.49120556  0.39000179    -0.05100
C550        C  0.16159419  0.46932363  0.36718568     0.09100
C551        C  0.18994783  0.46851388  0.34854455    -0.02400
C552        C  0.22186863  0.48787884  0.35347085    -0.00700
C553        C  0.22566020  0.50818788  0.37706009    -0.04300
C554        C  0.19664321  0.51015044  0.39504699     0.02700
C555        C  0.12915183  0.44573313  0.36412637     0.09500
C556        C  0.18636499  0.44740790  0.32447549     0.35400
C557        C  0.19956135  0.53129247  0.41919095     0.38900
C558        C  0.09586882  0.46045986  0.35685225    -0.04700
C559        C  0.06403718  0.44034692  0.35974972     0.02500
C560        C  0.06524634  0.40457865  0.36915045    -0.04300
C561        C  0.09917577  0.38894826  0.37398433    -0.00500
C562        C  0.13076290  0.40953359  0.37184295    -0.03100
C563        C  0.09434504  0.49706346  0.34751632     0.36200
C564        C  0.10172794  0.35181650  0.38199551     0.39800
C565        C  0.03002981  0.45783356  0.35524828     0.38900
C566        C  0.16491493  0.39395264  0.37896618     0.35800
C567        C  0.13529514  0.49407817  0.40861974     0.36500
C568        C  0.25141412  0.48547670  0.33493270     0.39800
N569        N  0.00294420  0.47198453  0.35185361    -0.38300
N570        N  0.09325016  0.52626659  0.34005075    -0.39900
N571        N  0.10379436  0.32225174  0.38850100    -0.37600
N572        N  0.19219139  0.38161901  0.38467671    -0.40000
N573        N  0.18348143  0.43060962  0.30522124    -0.39800
N574        N  0.27497588  0.48336092  0.32009433    -0.37400
N575        N  0.20119242  0.54792667  0.43859167    -0.38500
N576        N  0.11183871  0.49715873  0.42344884    -0.40100
C577        C  0.36199286  0.59425485  0.26762167    -0.05100
C578        C  0.36744632  0.63118300  0.26407996     0.09100
C579        C  0.36114251  0.65462934  0.28555231    -0.02400
C580        C  0.35122822  0.64111963  0.31084387    -0.00700
C581        C  0.34856097  0.60376650  0.31507656    -0.04300
C582        C  0.35303510  0.58051685  0.29302772     0.02700
C583        C  0.38263188  0.64500759  0.23833767     0.09500
C584        C  0.36613098  0.69267405  0.28174795     0.35400
C585        C  0.34864571  0.54233022  0.29637245     0.38900
C586        C  0.36006384  0.65647658  0.21751850    -0.04700
C587        C  0.37468915  0.66783501  0.19288458     0.02500
C588        C  0.41221862  0.66737222  0.18876098    -0.04300
C589        C  0.43472087  0.65800117  0.21042450    -0.00500
C590        C  0.41997043  0.64649213  0.23489356    -0.03100
C591        C  0.32168509  0.65585545  0.22135325     0.36200
C592        C  0.47318281  0.66133774  0.20796323     0.39800
C593        C  0.35079796  0.67928714  0.17177880     0.38900
C594        C  0.44324757  0.63565458  0.25658868     0.35800
C595        C  0.36632926  0.57033203  0.24510677     0.36500
C596        C  0.34546128  0.66584104  0.33268251     0.39800
N597        N  0.33167256  0.68885771  0.15510414    -0.38300
N598        N  0.29106503  0.65532244  0.22444413    -0.39900
N599        N  0.50384393  0.66433339  0.20611940    -0.37600
N600        N  0.46166685  0.62690470  0.27394291    -0.40000
N601        N  0.37023620  0.72299637  0.27863182    -0.39800
N602        N  0.34057236  0.68568077  0.34999114    -0.37400
N603        N  0.34544303  0.51180753  0.29890202    -0.38500
N604        N  0.36961402  0.55131890  0.22708375    -0.40100
C605        C  0.52463751  0.48390045  0.52156264    -0.05100
C606        C  0.52335768  0.51483724  0.50569874     0.09100
C607        C  0.55046262  0.54086149  0.50786308    -0.02400
C608        C  0.57860613  0.53600110  0.52622956    -0.00700
C609        C  0.57839383  0.50619007  0.54351306    -0.04300
C610        C  0.55067601  0.48058503  0.54148334     0.02700
C611        C  0.49215922  0.52016292  0.48776614     0.09500
C612        C  0.54884200  0.57293260  0.49169917     0.35400
C613        C  0.54766467  0.45117492  0.56018819     0.38900
C614        C  0.45797142  0.52586069  0.49895687    -0.04700
C615        C  0.42757430  0.52606791  0.48248233     0.02500
C616        C  0.43159051  0.52327762  0.45464132    -0.04300
C617        C  0.46577371  0.51772073  0.44341291    -0.00500
C618        C  0.49595568  0.51563768  0.46001211    -0.03100
C619        C  0.45418646  0.53156857  0.52747140     0.36200
C620        C  0.46980336  0.51305118  0.41480662     0.39800
C621        C  0.39229788  0.52843158  0.49425595     0.38900
C622        C  0.53084077  0.50840733  0.44862740     0.35800
C623        C  0.49881649  0.45545984  0.51741489     0.36500
C624        C  0.60639237  0.56280582  0.52852249     0.39800
N625        N  0.36430596  0.52950788  0.50400143    -0.38300
N626        N  0.45127397  0.53619559  0.55020469    -0.39900
N627        N  0.47329682  0.50915337  0.39204310    -0.37600
N628        N  0.55870967  0.50276717  0.43959454    -0.40000
N629        N  0.54752530  0.59850295  0.47877454    -0.39800
N630        N  0.62857279  0.58417430  0.53037573    -0.37400
N631        N  0.54356811  0.42763253  0.57483011    -0.38500
N632        N  0.47838278  0.43276196  0.51393788    -0.40100
C633        C  0.78887894  0.41719940  0.51501820    -0.05100
C634        C  0.78124082  0.43238806  0.48985729     0.09100
C635        C  0.75216710  0.45612985  0.48743372    -0.02400
C636        C  0.73117663  0.46501398  0.51001029    -0.00700
C637        C  0.73898268  0.45010660  0.53535478    -0.04300
C638        C  0.76791253  0.42587511  0.53758232     0.02700
C639        C  0.80486075  0.42430772  0.46623841     0.09500
C640        C  0.74398105  0.47149076  0.46158662     0.35400
C641        C  0.77739923  0.41104244  0.56339604     0.38900
C642        C  0.79926536  0.39352518  0.45062564    -0.04700
C643        C  0.82382679  0.38398161  0.43027963     0.02500
C644        C  0.85587823  0.40384992  0.42660928    -0.04300
C645        C  0.85895411  0.43709123  0.44040029    -0.00500
C646        C  0.83365303  0.44699655  0.46002233    -0.03100
C647        C  0.76895036  0.37070268  0.45642228     0.36200
C648        C  0.88811671  0.46155551  0.43488226     0.39800
C649        C  0.81632762  0.35276004  0.41412902     0.38900
C650        C  0.83766838  0.48037862  0.47440334     0.35800
C651        C  0.81890359  0.39306548  0.51787041     0.36500
C652        C  0.70099292  0.48885077  0.50688052     0.39800
N653        N  0.81013695  0.32783067  0.40130908    -0.38300
N654        N  0.74492753  0.35237068  0.46125373    -0.39900
N655        N  0.91135861  0.48114081  0.43067525    -0.37600
N656        N  0.84070739  0.50709970  0.48574393    -0.40000
N657        N  0.73755250  0.48369671  0.44091771    -0.39800
N658        N  0.67690393  0.50784632  0.50420080    -0.37400
N659        N  0.78504196  0.39925265  0.58397281    -0.38500
N660        N  0.84278973  0.37380801  0.52047951    -0.40100
C661        C  0.80614220  0.56668385  0.65869579    -0.05100
C662        C  0.83304993  0.57015156  0.63912704     0.09100
C663        C  0.82828985  0.55401658  0.61394507    -0.02400
C664        C  0.79763402  0.53337226  0.60867914    -0.00700
C665        C  0.77050593  0.52991515  0.62813745    -0.04300
C666        C  0.77455763  0.54728951  0.65299337     0.02700
C667        C  0.86679286  0.59063569  0.64437251     0.09500
C668        C  0.85457926  0.55973611  0.59304586     0.35400
C669        C  0.74596168  0.54580644  0.67244412     0.38900
C670        C  0.89864312  0.57199638  0.64999064    -0.04700
C671        C  0.93208326  0.58917770  0.64736030     0.02500
C672        C  0.93377672  0.62559231  0.63982360    -0.04300
C673        C  0.90156403  0.64515009  0.63747244    -0.00500
C674        C  0.86823990  0.62760521  0.63923789    -0.03100
C675        C  0.89690991  0.53434472  0.65659026     0.36200
C676        C  0.90274067  0.68315229  0.63201315     0.39800
C677        C  0.96449978  0.56824040  0.64963766     0.38900
C678        C  0.83553847  0.64700172  0.63380002     0.35800
C679        C  0.81090174  0.58338489  0.68451774     0.36500
C680        C  0.79374412  0.51692957  0.58266658     0.39800
N681        N  0.99027232  0.55135168  0.65126039    -0.38300
N682        N  0.89527289  0.50431976  0.66184941    -0.39900
N683        N  0.90363897  0.71348538  0.62774038    -0.37600
N684        N  0.80944470  0.66240923  0.62931522    -0.40000
N685        N  0.87535389  0.56465395  0.57633922    -0.39800
N686        N  0.79179481  0.50439833  0.56162993    -0.37400
N687        N  0.72299176  0.54499994  0.68788208    -0.38500
N688        N  0.81479831  0.59672546  0.70513850    -0.40100
C689        C  0.50517761  0.52712418  0.04532165    -0.05100
C690        C  0.51225297  0.53185382  0.01796433     0.09100
C691        C  0.51714493  0.56647514  0.00744952    -0.02400
C692        C  0.51306140  0.59652081  0.02409241    -0.00700
C693        C  0.50320175  0.59179058  0.05104172    -0.04300
C694        C  0.50066299  0.55698133  0.06184597     0.02700
C695        C  0.51340943  0.50014186  0.00018691     0.09500
C696        C  0.52579033  0.57103622  0.97943942     0.35400
C697        C  0.49393383  0.55176991  0.09014229     0.38900
C698        C  0.48325228  0.49125088  0.98465392    -0.04700
C699        C  0.48424187  0.46127572  0.96776120     0.02500
C700        C  0.51516232  0.43983953  0.96683036    -0.04300
C701        C  0.54439058  0.44746702  0.98370290    -0.00500
C702        C  0.54381944  0.47801170  0.99994554    -0.03100
C703        C  0.45136722  0.51319753  0.98594249     0.36200
C704        C  0.57475217  0.42341769  0.98468072     0.39800
C705        C  0.45402095  0.45343374  0.95065060     0.38900
C706        C  0.57454399  0.48690872  0.01628349     0.35800
C707        C  0.50207778  0.49142941  0.05636218     0.36500
C708        C  0.51805808  0.63210174  0.01333359     0.39800
N709        N  0.42973193  0.44747465  0.93710057    -0.38300
N710        N  0.42597818  0.53073183  0.98703202    -0.39900
N711        N  0.59875400  0.40401551  0.98561513    -0.37600
N712        N  0.59894460  0.49408554  0.02940167    -0.40000
N713        N  0.53260492  0.57458880  0.95706392    -0.39800
N714        N  0.52222430  0.66048858  0.00476889    -0.37400
N715        N  0.48862889  0.54755692  0.11268398    -0.38500
N716        N  0.49989934  0.46293618  0.06512341    -0.40100
C717        C  0.59834722  0.41023465  0.78220743    -0.05100
C718        C  0.61806127  0.38372744  0.76872754     0.09100
C719        C  0.62239158  0.34993455  0.78080226    -0.02400
C720        C  0.60693732  0.34266772  0.80606192    -0.00700
C721        C  0.58833852  0.36970332  0.82017997    -0.04300
C722        C  0.58434722  0.40369814  0.80794020     0.02700
C723        C  0.63221881  0.39133646  0.74112356     0.09500
C724        C  0.64285779  0.32262597  0.76719171     0.35400
C725        C  0.56712540  0.43280272  0.82203610     0.38900
C726        C  0.66199943  0.41398915  0.73734784    -0.04700
C727        C  0.67153677  0.42590468  0.71142328     0.02500
C728        C  0.65042588  0.41643731  0.68904590    -0.04300
C729        C  0.62206862  0.39152711  0.69286792    -0.00500
C730        C  0.61339739  0.37892491  0.71864447    -0.03100
C731        C  0.68207764  0.42602185  0.76038935     0.36200
C732        C  0.60104324  0.37885383  0.67042699     0.39800
C733        C  0.70243354  0.44874615  0.70814143     0.38900
C734        C  0.58409291  0.35397546  0.72218747     0.35800
C735        C  0.59218782  0.44439837  0.76932795     0.36500
C736        C  0.60910940  0.30688340  0.81698314     0.39800
N737        N  0.72745758  0.46655144  0.70564893    -0.38300
N738        N  0.69791192  0.43577447  0.77883381    -0.39900
N739        N  0.58378025  0.36891984  0.65276079    -0.37600
N740        N  0.56093415  0.33387220  0.72502520    -0.40000
N741        N  0.65925345  0.30083368  0.75636903    -0.39800
N742        N  0.61054810  0.27827463  0.82562724    -0.37400
N743        N  0.55355438  0.45618045  0.83319433    -0.38500
N744        N  0.58727719  0.47150846  0.75889058    -0.40100
C745        C  0.71021474  0.40489735  0.94451783    -0.05100
C746        C  0.70236040  0.43522858  0.96020552     0.09100
C747        C  0.67027417  0.45399874  0.95545018    -0.02400
C748        C  0.64517028  0.44099720  0.93676270    -0.00700
C749        C  0.65049445  0.40741810  0.92441932    -0.04300
C750        C  0.68411869  0.39062642  0.92712170     0.02700
C751        C  0.72570979  0.44514547  0.98357480     0.09500
C752        C  0.66211025  0.48567741  0.97091989     0.35400
C753        C  0.69195827  0.35880942  0.91175099     0.38900
C754        C  0.74504474  0.47750864  0.98397299    -0.04700
C755        C  0.76320319  0.48851557  0.00738466     0.02500
C756        C  0.76398343  0.46623626  0.03034126    -0.04300
C757        C  0.74591431  0.43285726  0.02923195    -0.00500
C758        C  0.72635104  0.42291023  0.00631615    -0.03100
C759        C  0.74592689  0.49970918  0.96025289     0.36200
C760        C  0.74746141  0.40803314  0.05146534     0.39800
C761        C  0.77930868  0.52369685  0.00805727     0.38900
C762        C  0.70607714  0.38984473  0.00636364     0.35800
C763        C  0.74480444  0.38782527  0.94691749     0.36500
C764        C  0.61353974  0.46195781  0.93112187     0.39800
N765        N  0.79181891  0.55193705  0.00856769    -0.38300
N766        N  0.74658875  0.51742182  0.94133129    -0.39900
N767        N  0.74845630  0.38812891  0.06912116    -0.37600
N768        N  0.68996348  0.36348442  0.00634065    -0.40000
N769        N  0.65577246  0.51097334  0.98327074    -0.39800
N770        N  0.58889492  0.47961216  0.92668398    -0.37400
N771        N  0.69813594  0.33343891  0.89943344    -0.38500
N772        N  0.77245789  0.37427924  0.94876371    -0.40100
C773        C  0.36798709  0.40122708  0.89636431    -0.05100
C774        C  0.36315168  0.42493340  0.87475977     0.09100
C775        C  0.39066020  0.42876907  0.85570505    -0.02400
C776        C  0.42387665  0.41150398  0.85947578    -0.00700
C777        C  0.42983870  0.39007696  0.88230616    -0.04300
C778        C  0.40101034  0.38362290  0.90003492     0.02700
C779        C  0.33073644  0.44865325  0.87388918     0.09500
C780        C  0.38499170  0.45135663  0.83259551     0.35400
C781        C  0.40592930  0.36106798  0.92330064     0.38900
C782        C  0.33333457  0.48410334  0.88310378    -0.04700
C783        C  0.30257464  0.50573843  0.88516243     0.02500
C784        C  0.26835132  0.49201150  0.87825577    -0.04300
C785        C  0.26619430  0.45674976  0.86800092    -0.00500
C786        C  0.29722522  0.43534995  0.86575829    -0.03100
C787        C  0.36774355  0.49789900  0.89161572     0.36200
C788        C  0.23211631  0.44203486  0.85983907     0.39800
C789        C  0.30645203  0.54148049  0.89596744     0.38900
C790        C  0.29465308  0.39923826  0.85555699     0.35800
C791        C  0.33951539  0.39653134  0.91570068     0.36500
C792        C  0.45190762  0.41565955  0.83976264     0.39800
N793        N  0.30977537  0.56996054  0.90454548    -0.38300
N794        N  0.39516656  0.50887332  0.89840308    -0.39900
N795        N  0.20511007  0.42975262  0.85341444    -0.37600
N796        N  0.29258889  0.37040214  0.84745618    -0.40000
N797        N  0.38035915  0.46939241  0.81416331    -0.39800
N798        N  0.47417508  0.41877176  0.82391770    -0.37400
N799        N  0.40977272  0.34312522  0.94188967    -0.38500
N800        N  0.31672535  0.39287173  0.93106225    -0.40100
C801        C  0.60033333  0.34875356  0.53374973    -0.05100
C802        C  0.60056416  0.31348073  0.54346243     0.09100
C803        C  0.61320916  0.30650204  0.56948279    -0.02400
C804        C  0.62477714  0.33495265  0.58597494    -0.00700
C805        C  0.62403887  0.37045172  0.57630280    -0.04300
C806        C  0.61350369  0.37674303  0.54956875     0.02700
C807        C  0.59084226  0.28405596  0.52464232     0.09500
C808        C  0.61465310  0.27005842  0.57907565     0.35400
C809        C  0.61963646  0.41115949  0.53713355     0.38900
C810        C  0.61573950  0.27374255  0.50504103    -0.04700
C811        C  0.60450495  0.25432349  0.48247115     0.02500
C812        C  0.56815859  0.24439835  0.47954799    -0.04300
C813        C  0.54388448  0.25218398  0.50046862    -0.00500
C814        C  0.55530955  0.27187915  0.52296450    -0.03100
C815        C  0.65276050  0.28477172  0.50761150     0.36200
C816        C  0.50651030  0.24258514  0.49800658     0.39800
C817        C  0.63056605  0.24548587  0.46210081     0.38900
C818        C  0.53020081  0.28102332  0.54389416     0.35800
C819        C  0.58714952  0.35615622  0.50703284     0.36500
C820        C  0.63815377  0.32748015  0.61253126     0.39800
N821        N  0.65184267  0.23906249  0.44605981    -0.38300
N822        N  0.68221593  0.29365906  0.50979842    -0.39900
N823        N  0.47663319  0.23514732  0.49598975    -0.37600
N824        N  0.51021758  0.28813765  0.56068193    -0.40000
N825        N  0.61584883  0.24095075  0.58673824    -0.39800
N826        N  0.64922652  0.32134538  0.63360780    -0.37400
N827        N  0.62511782  0.43790034  0.52635086    -0.38500
N828        N  0.57651885  0.36201232  0.48579099    -0.40100
C829        C  0.43993287  0.41258274  0.35203366    -0.05100
C830        C  0.43176381  0.38228129  0.36756403     0.09100
C831        C  0.40063077  0.38229111  0.38338956    -0.02400
C832        C  0.37946787  0.41336506  0.38555808    -0.00700
C833        C  0.38941358  0.44514811  0.37192752    -0.04300
C834        C  0.41876205  0.44377791  0.35400823     0.02700
C835        C  0.45729034  0.35140588  0.36947539     0.09500
C836        C  0.39132832  0.35056910  0.39851957     0.35400
C837        C  0.42731095  0.47444255  0.33752290     0.38900
C838        C  0.48511697  0.35241686  0.38850390    -0.04700
C839        C  0.50513401  0.32137917  0.39413963     0.02500
C840        C  0.49791930  0.28921771  0.38046220    -0.04300
C841        C  0.47162797  0.28876249  0.36026711    -0.00500
C842        C  0.45142156  0.31981371  0.35473873    -0.03100
C843        C  0.49227471  0.38520777  0.40294421     0.36200
C844        C  0.46418261  0.25580395  0.34617820     0.39800
C845        C  0.53235165  0.32218822  0.41473819     0.38900
C846        C  0.42387719  0.31908496  0.33444138     0.35800
C847        C  0.47073606  0.41184181  0.33453019     0.36500
C848        C  0.34871683  0.41271841  0.40317784     0.39800
N849        N  0.55400809  0.32285054  0.43120849    -0.38300
N850        N  0.49797258  0.41147360  0.41431651    -0.39900
N851        N  0.45829966  0.22938003  0.33507066    -0.37600
N852        N  0.40193891  0.31858585  0.31817893    -0.40000
N853        N  0.38401846  0.32521875  0.41053739    -0.39800
N854        N  0.32417478  0.41200677  0.41721196    -0.37400
N855        N  0.43408934  0.49888367  0.32432750    -0.38500
N856        N  0.49530989  0.41116203  0.32053745    -0.40100
C857        C  0.51571461  0.85860043  0.12934788    -0.05100
C858        C  0.55230886  0.85718271  0.13621598     0.09100
C859        C  0.56758300  0.82413760  0.14339661    -0.02400
C860        C  0.54710813  0.79250277  0.14210885    -0.00700
C861        C  0.51122860  0.79349293  0.13329979    -0.04300
C862        C  0.49521671  0.82687428  0.12796037     0.02700
C863        C  0.57549952  0.88987107  0.13383728     0.09500
C864        C  0.60497020  0.82254526  0.15085458     0.35400
C865        C  0.45830800  0.82831501  0.11928187     0.38900
C866        C  0.57699807  0.91533801  0.15457606    -0.04700
C867        C  0.59798211  0.94656579  0.15170495     0.02500
C868        C  0.61824267  0.95221604  0.12827013    -0.04300
C869        C  0.61786267  0.92588977  0.10799199    -0.00500
C870        C  0.59629949  0.89515206  0.11065133    -0.03100
C871        C  0.55691119  0.90926198  0.17887141     0.36200
C872        C  0.63847800  0.93104849  0.08374857     0.39800
C873        C  0.59929467  0.97260285  0.17306989     0.38900
C874        C  0.59480541  0.86923549  0.08916809     0.35800
C875        C  0.49975216  0.89250789  0.12218431     0.36500
C876        C  0.56330099  0.75870162  0.14932000     0.39800
N877        N  0.60051632  0.99336884  0.19013380    -0.38300
N878        N  0.54090670  0.90422121  0.19826785    -0.39900
N879        N  0.65500740  0.93512682  0.06446390    -0.37600
N880        N  0.59354875  0.84860937  0.07201131    -0.40000
N881        N  0.63486995  0.82137318  0.15662052    -0.39800
N882        N  0.57647056  0.73196952  0.15537258    -0.37400
N883        N  0.42883482  0.82938666  0.11238151    -0.38500
N884        N  0.48709882  0.91959760  0.11641037    -0.40100
C885        C  0.61893654  0.11620376  0.29058164    -0.05100
C886        C  0.62542082  0.14283451  0.27131564     0.09100
C887        C  0.61723825  0.17877806  0.27720675    -0.02400
C888        C  0.60206914  0.18795620  0.30214436    -0.00700
C889        C  0.59486849  0.16114389  0.32121770    -0.04300
C890        C  0.60382023  0.12525581  0.31541309     0.02700
C891        C  0.63692093  0.13212335  0.24382354     0.09500
C892        C  0.62348996  0.20606001  0.25722537     0.35400
C893        C  0.59774111  0.09743847  0.33508965     0.38900
C894        C  0.61066558  0.12485820  0.22444674    -0.04700
C895        C  0.62060194  0.11256942  0.19897302     0.02500
C896        C  0.65700931  0.10615991  0.19282542    -0.04300
C897        C  0.68340146  0.11385235  0.21215795    -0.00500
C898        C  0.67334253  0.12692545  0.23758963    -0.03100
C899        C  0.57316476  0.12914581  0.23105873     0.36200
C900        C  0.72066483  0.10694963  0.20630810     0.39800
C901        C  0.59312442  0.10741254  0.17887116     0.38900
C902        C  0.70028871  0.13431095  0.25760439     0.35800
C903        C  0.62687735  0.07920479  0.28445863     0.36500
C904        C  0.59219249  0.22461533  0.30763102     0.39800
N905        N  0.57122920  0.10340749  0.16284477    -0.38300
N906        N  0.54329848  0.13234724  0.23647186    -0.39900
N907        N  0.75039924  0.10130274  0.20165316    -0.37600
N908        N  0.72173677  0.14020700  0.27363867    -0.40000
N909        N  0.62844858  0.22772664  0.24118043    -0.39800
N910        N  0.58410729  0.25384154  0.31197014    -0.37400
N911        N  0.59283778  0.07523391  0.35073112    -0.38500
N912        N  0.63313423  0.04971191  0.27949654    -0.40100
C913        C  0.60838591  0.22356535  0.07504746    -0.05100
C914        C  0.60852631  0.21790765  0.04710588     0.09100
C915        C  0.62051887  0.18493470  0.03706829    -0.02400
C916        C  0.63456102  0.15891491  0.05439594    -0.00700
C917        C  0.63587214  0.16480291  0.08231573    -0.04300
C918        C  0.62147505  0.19681290  0.09263998     0.02700
C919        C  0.59689404  0.24618216  0.02754446     0.09500
C920        C  0.61821423  0.17766980  0.00860883     0.35400
C921        C  0.62074948  0.20244589  0.12124240     0.38900
C922        C  0.62253996  0.26227294  0.01068624    -0.04700
C923        C  0.61172783  0.28201360  0.98804147     0.02500
C924        C  0.57504903  0.28745370  0.98261447    -0.04300
C925        C  0.54942627  0.27381070  0.00083113    -0.00500
C926        C  0.56029720  0.25254565  0.02276048    -0.03100
C927        C  0.66027453  0.25709602  0.01607487     0.36200
C928        C  0.51164109  0.27956716  0.99614340     0.39800
C929        C  0.63862851  0.29630769  0.97020861     0.38900
C930        C  0.53375325  0.23535212  0.03946945     0.35800
C931        C  0.59517033  0.25700582  0.08560193     0.36500
C932        C  0.64698583  0.12577348  0.04294208     0.39800
N933        N  0.66044676  0.30727248  0.95607342    -0.38300
N934        N  0.69034102  0.25285583  0.02036580    -0.39900
N935        N  0.48148508  0.28416565  0.99244853    -0.37600
N936        N  0.51265027  0.22146221  0.05277657    -0.40000
N937        N  0.61633063  0.17192190  0.98595777    -0.39800
N938        N  0.65647628  0.10004842  0.03244410    -0.37400
N939        N  0.61998852  0.20673831  0.14411161    -0.38500
N940        N  0.58446914  0.28368904  0.09400744    -0.40100
C941        C  0.41888957  0.70916412  0.43729179    -0.05100
C942        C  0.41255884  0.70686867  0.46506110     0.09100
C943        C  0.39297857  0.67777189  0.47507785    -0.02400
C944        C  0.37792062  0.65246386  0.45759093    -0.00700
C945        C  0.38215341  0.65550052  0.42952819    -0.04300
C946        C  0.40429163  0.68324610  0.41961130     0.02700
C947        C  0.42525727  0.73493929  0.48441898     0.09500
C948        C  0.38868786  0.67367158  0.50376764     0.35400
C949        C  0.41238489  0.68518049  0.39138103     0.38900
C950        C  0.40026294  0.75900465  0.49543232    -0.04700
C951        C  0.40911846  0.77953815  0.51813884     0.02500
C952        C  0.44322618  0.77671930  0.52996499    -0.04300
C953        C  0.46916415  0.75465051  0.51773656    -0.00500
C954        C  0.46004952  0.73346728  0.49529858    -0.03100
C955        C  0.36468108  0.76127557  0.48408733     0.36200
C956        C  0.50460963  0.75205889  0.52923046     0.39800
C957        C  0.38291505  0.80355853  0.52934447     0.38900
C958        C  0.48578599  0.70860783  0.48433414     0.35800
C959        C  0.44029274  0.73827536  0.42698356     0.36500
C960        C  0.36000226  0.62209211  0.46921660     0.39800
N961        N  0.36172299  0.82270483  0.53802068    -0.38300
N962        N  0.33627558  0.76290750  0.47507582    -0.39900
N963        N  0.53283238  0.74992597  0.53850408    -0.37600
N964        N  0.50626009  0.68866615  0.47559501    -0.40000
N965        N  0.38544516  0.67048503  0.52661732    -0.39800
N966        N  0.34644448  0.59839735  0.47989518    -0.37400
N967        N  0.41953329  0.68668482  0.36893407    -0.38500
N968        N  0.45747976  0.76149275  0.41878388    -0.40100
C969        C  0.51510069  0.67213765  0.61942653    -0.05100
C970        C  0.53639207  0.66949761  0.64267738     0.09100
C971        C  0.53646553  0.69811802  0.66109940    -0.02400
C972        C  0.51774216  0.73003988  0.65526525    -0.00700
C973        C  0.49913550  0.73361934  0.63091916    -0.04300
C974        C  0.49645215  0.70393373  0.61369193     0.02700
C975        C  0.56020593  0.63743256  0.64642797     0.09500
C976        C  0.55634298  0.69491197  0.68579240     0.35400
C977        C  0.47390641  0.70579634  0.59018685     0.38900
C978        C  0.59727166  0.64030506  0.64158648    -0.04700
C979        C  0.61847181  0.60929754  0.63893139     0.02500
C980        C  0.60276046  0.57497671  0.64066568    -0.04300
C981        C  0.56632721  0.57226637  0.64812869    -0.00500
C982        C  0.54535833  0.60339044  0.65132622    -0.03100
C983        C  0.61334855  0.67521877  0.63806912     0.36200
C984        C  0.54938398  0.53757364  0.65027306     0.39800
C985        C  0.65642333  0.61278799  0.63366374     0.38900
C986        C  0.50790736  0.60040189  0.65836166     0.35800
C987        C  0.51301048  0.64237322  0.60095217     0.36500
C988        C  0.51793094  0.75937898  0.67408453     0.39800
N989        N  0.68668489  0.61561204  0.62946607    -0.38300
N990        N  0.62613064  0.70312676  0.63547289    -0.39900
N991        N  0.53581078  0.50990297  0.65185775    -0.37600
N992        N  0.47800563  0.59804805  0.66391756    -0.40000
N993        N  0.57232440  0.69239268  0.70547232    -0.39800
N994        N  0.51770327  0.78273438  0.68918012    -0.37400
N995        N  0.45555153  0.70653998  0.57161786    -0.38500
N996        N  0.51105915  0.61853068  0.58635067    -0.40100
C997        C  0.46637349  0.97314211  0.51078570    -0.05100
C998        C  0.49902276  0.99179214  0.50997963     0.09100
C999        C  0.52848779  0.97933578  0.52480159    -0.02400
C1000       C  0.52474857  0.94935883  0.54158291    -0.00700
C1001       C  0.49114300  0.93229478  0.54402336    -0.04300
C1002       C  0.46271726  0.94295623  0.52726860     0.02700
C1003       C  0.50290261  0.02352546  0.49229352     0.09500
C1004       C  0.56251716  0.99774045  0.52297240     0.35400
C1005       C  0.43068890  0.92129548  0.52551342     0.38900
C1006       C  0.49534502  0.05798942  0.50204378    -0.04700
C1007       C  0.49933844  0.08799556  0.48527020     0.02500
C1008       C  0.51088755  0.08351919  0.45862194    -0.04300
C1009       C  0.51715775  0.04860255  0.44871302    -0.00500
C1010       C  0.51369473  0.01886192  0.46563422    -0.03100
C1011       C  0.48390296  0.06244104  0.52949257     0.36200
C1012       C  0.52610939  0.04292669  0.42081838     0.39800
C1013       C  0.49262623  0.12337235  0.49577636     0.38900
C1014       C  0.52150190  0.98331846  0.45571698     0.35800
C1015       C  0.43650134  0.98523627  0.49472734     0.36500
C1016       C  0.55565653  0.93614789  0.55595431     0.39800
N1017       N  0.48724492  0.15154853  0.50428743    -0.38300
N1018       N  0.47479549  0.06582533  0.55141623    -0.39900
N1019       N  0.53313879  0.03836385  0.39858378    -0.37600
N1020       N  0.52785376  0.95497546  0.44789817    -0.40000
N1021       N  0.58961542  0.01247616  0.52151504    -0.39800
N1022       N  0.58070572  0.92546179  0.56686892    -0.37400
N1023       N  0.40553323  0.90353807  0.52360693    -0.38500
N1024       N  0.41269908  0.99504824  0.48195770    -0.40100
C1025       C  0.40390260  0.85682864  0.97731104    -0.05100
C1026       C  0.41472324  0.82336547  0.96741267     0.09100
C1027       C  0.41228983  0.81624684  0.93979861    -0.02400
C1028       C  0.39944656  0.84278380  0.92208533    -0.00700
C1029       C  0.38888741  0.87641845  0.93201363    -0.04300
C1030       C  0.39076531  0.88306529  0.95981033     0.02700
C1031       C  0.42657996  0.79542473  0.98685431     0.09500
C1032       C  0.42324044  0.78172454  0.92972861     0.35400
C1033       C  0.37944198  0.91703875  0.97076797     0.38900
C1034       C  0.40063119  0.77740034  0.00208931    -0.04700
C1035       C  0.41076261  0.75743736  0.02468232     0.02500
C1036       C  0.44731363  0.75392249  0.03156851    -0.04300
C1037       C  0.47349876  0.76990065  0.01507657    -0.00500
C1038       C  0.46309701  0.79109229  0.99304042    -0.03100
C1039       C  0.36314381  0.78084348  0.99508535     0.36200
C1040       C  0.51102418  0.76662380  0.02183613     0.39800
C1041       C  0.38297756  0.74148253  0.04091872     0.38900
C1042       C  0.48978534  0.80997530  0.97754709     0.35800
C1043       C  0.40654381  0.86430771  0.00570883     0.36500
C1044       C  0.39819708  0.83592446  0.89365063     0.39800
N1045       N  0.35956697  0.72971186  0.05316351    -0.38300
N1046       N  0.33330205  0.78363965  0.98946762    -0.39900
N1047       N  0.54092413  0.76396591  0.02732631    -0.37600
N1048       N  0.51107551  0.82515252  0.96522964    -0.40000
N1049       N  0.43210048  0.75413072  0.92178250    -0.39800
N1050       N  0.39732549  0.83043521  0.87093294    -0.37400
N1051       N  0.37088991  0.94374227  0.98039311    -0.38500
N1052       N  0.40869093  0.87013794  0.02833580    -0.40100
C1053       C  0.48834613  0.99254809  0.98689661    -0.05100
C1054       C  0.49301270  0.02702180  0.99753594     0.09100
C1055       C  0.46860743  0.05443700  0.99114540    -0.02400
C1056       C  0.43952566  0.04721633  0.97416789    -0.00700
C1057       C  0.43594594  0.01315663  0.96248073    -0.04300
C1058       C  0.46103446  0.98610705  0.96836918     0.02700
C1059       C  0.52391313  0.03396003  0.01542909     0.09500
C1060       C  0.47382751  0.09014670  0.00160816     0.35400
C1061       C  0.46024842  0.95198894  0.95478828     0.38900
C1062       C  0.55910147  0.03172187  0.00531747    -0.04700
C1063       C  0.58838194  0.03328021  0.02284040     0.02500
C1064       C  0.58257855  0.03961028  0.05021945    -0.04300
C1065       C  0.54736468  0.04280799  0.06021665    -0.00500
C1066       C  0.51812345  0.03933056  0.04291119    -0.03100
C1067       C  0.56510380  0.02732488  0.97688788     0.36200
C1068       C  0.54101500  0.04798415  0.08857209     0.39800
C1069       C  0.62431011  0.02825071  0.01266729     0.38900
C1070       C  0.48204746  0.04022917  0.05351510     0.35800
C1071       C  0.51193798  0.96366739  0.99493213     0.36500
C1072       C  0.41452605  0.07538989  0.96742431     0.39800
N1073       N  0.65293284  0.02395824  0.00456983    -0.38300
N1074       N  0.56990115  0.02367457  0.95423440    -0.39900
N1075       N  0.53595162  0.05215736  0.11114565    -0.37600
N1076       N  0.45329156  0.04107560  0.06194481    -0.40000
N1077       N  0.47791413  0.11860302  0.01003346    -0.39800
N1078       N  0.39458241  0.09779308  0.96192269    -0.37400
N1079       N  0.46167293  0.92455591  0.94427055    -0.38500
N1080       N  0.53078800  0.94076248  0.00136509    -0.40100
C1081       C  0.37557501  0.93709351  0.77199198    -0.05100
C1082       C  0.37125771  0.90021566  0.76696129     0.09100
C1083       C  0.35591229  0.87834476  0.78690605    -0.02400
C1084       C  0.34627926  0.89298960  0.81193023    -0.00700
C1085       C  0.35329521  0.92922901  0.81760771    -0.04300
C1086       C  0.36743081  0.95135679  0.79737450     0.02700
C1087       C  0.38466223  0.88452392  0.74112419     0.09500
C1088       C  0.35146356  0.84048100  0.78208510     0.35400
C1089       C  0.37428114  0.98874823  0.80281658     0.38900
C1090       C  0.42174955  0.88149321  0.73655146    -0.04700
C1091       C  0.43482674  0.87110668  0.71124156     0.02500
C1092       C  0.41088281  0.86271815  0.69019815    -0.04300
C1093       C  0.37362973  0.86329365  0.69551534    -0.00500
C1094       C  0.36068697  0.87449876  0.72072466    -0.03100
C1095       C  0.44654220  0.88955421  0.75798378     0.36200
C1096       C  0.34822817  0.85430324  0.67472982     0.39800
C1097       C  0.47311933  0.86932724  0.70696143     0.38900
C1098       C  0.32254889  0.87693432  0.72541579     0.35800
C1099       C  0.38905227  0.96026456  0.75108585     0.36500
C1100       C  0.33037062  0.87048642  0.83226435     0.39800
N1101       N  0.50366676  0.86819306  0.70355047    -0.38300
N1102       N  0.46620084  0.89597401  0.77514737    -0.39900
N1103       N  0.32780811  0.84706521  0.65826232    -0.37600
N1104       N  0.29212730  0.87878926  0.72922034    -0.40000
N1105       N  0.34797460  0.81023869  0.77823959    -0.39800
N1106       N  0.31742816  0.85269339  0.84848819    -0.37400
N1107       N  0.37987145  0.01860724  0.80696003    -0.38500
N1108       N  0.39972176  0.97868749  0.73434021    -0.40100
C1109       C  0.48635680  0.17954903  0.89756294    -0.05100
C1110       C  0.47266391  0.17486048  0.87153956     0.09100
C1111       C  0.47889006  0.20134682  0.85201423    -0.02400
C1112       C  0.49702910  0.23321717  0.85886865    -0.00700
C1113       C  0.50914353  0.23862348  0.88530417    -0.04300
C1114       C  0.50492544  0.21097864  0.90429165     0.02700
C1115       C  0.45046391  0.14247571  0.86554043     0.09500
C1116       C  0.46595219  0.19600732  0.82505053     0.35400
C1117       C  0.52038348  0.21442448  0.93073564     0.38900
C1118       C  0.41285560  0.14475892  0.86639619    -0.04700
C1119       C  0.39201127  0.11340767  0.86772372     0.02500
C1120       C  0.40859053  0.07952812  0.86763216    -0.04300
C1121       C  0.44592765  0.07734630  0.86344175    -0.00500
C1122       C  0.46682346  0.10874582  0.86285300    -0.03100
C1123       C  0.39574748  0.17942299  0.86753103     0.36200
C1124       C  0.46337303  0.04285453  0.86198307     0.39800
C1125       C  0.35350821  0.11597347  0.87032033     0.38900
C1126       C  0.50543919  0.10635766  0.86146428     0.35800
C1127       C  0.48052588  0.15228098  0.91771246     0.36500
C1128       C  0.50191410  0.26096408  0.83901775     0.39800
N1129       N  0.32280199  0.11792274  0.87247636    -0.38300
N1130       N  0.38214258  0.20711882  0.86827663    -0.39900
N1131       N  0.47732851  0.01536310  0.86071563    -0.37600
N1132       N  0.53626603  0.10453099  0.86064643    -0.40000
N1133       N  0.45555150  0.19167994  0.80354283    -0.39800
N1134       N  0.50591099  0.28313194  0.82320199    -0.37400
N1135       N  0.53290778  0.21669671  0.95177848    -0.38500
N1136       N  0.47590294  0.13052411  0.93374817    -0.40100
C1137       C  0.10584527  0.81201324  0.43865708    -0.05100
C1138       C  0.10866219  0.81516686  0.46670828     0.09100
C1139       C  0.12460063  0.84597424  0.47762379    -0.02400
C1140       C  0.13803395  0.87309903  0.46081433    -0.00700
C1141       C  0.13604809  0.86980949  0.43265709    -0.04300
C1142       C  0.11928690  0.83928775  0.42170565     0.02700
C1143       C  0.09433801  0.78683943  0.48529105     0.09500
C1144       C  0.12640880  0.85012248  0.50642199     0.35400
C1145       C  0.11620789  0.83575992  0.39298957     0.38900
C1146       C  0.11795463  0.76333704  0.49835607    -0.04700
C1147       C  0.10591119  0.74149072  0.51962975     0.02500
C1148       C  0.06956659  0.74244484  0.52808680    -0.04300
C1149       C  0.04545313  0.76425015  0.51328217    -0.00500
C1150       C  0.05790224  0.78636337  0.49227520    -0.03100
C1151       C  0.15507377  0.76225538  0.49008670     0.36200
C1152       C  0.00782448  0.76544855  0.51990977     0.39800
C1153       C  0.13152097  0.71839966  0.53279116     0.38900
C1154       C  0.03329749  0.80972420  0.47828685     0.35800
C1155       C  0.08910427  0.78066240  0.42729351     0.36500
C1156       C  0.15170223  0.90542984  0.47290519     0.39800
N1157       N  0.15215933  0.70034899  0.54341784    -0.38300
N1158       N  0.18461772  0.76143999  0.48334526    -0.39900
N1159       N  0.97763355  0.76667356  0.52468838    -0.37600
N1160       N  0.01370089  0.82828738  0.46705709    -0.40000
N1161       N  0.12776979  0.85334697  0.52937197    -0.39800
N1162       N  0.16183138  0.93097078  0.48338600    -0.37400
N1163       N  0.11371255  0.83311677  0.37005059    -0.38500
N1164       N  0.07564534  0.75564186  0.41824011    -0.40100
C1165       C  0.01028232  0.17496830  0.38276235    -0.05100
C1166       C  0.04184512  0.17421794  0.36738636     0.09100
C1167       C  0.05231051  0.20511467  0.35331530    -0.02400
C1168       C  0.03333414  0.23747006  0.35661215    -0.00700
C1169       C  0.00306648  0.23901662  0.37358516    -0.04300
C1170       C  0.99060954  0.20697402  0.38549276     0.02700
C1171       C  0.06654671  0.14263055  0.36920048     0.09500
C1172       C  0.08349563  0.20375553  0.33619305     0.35400
C1173       C  0.95885867  0.20713261  0.40208819     0.38900
C1174       C  0.06136157  0.11194892  0.35334163    -0.04700
C1175       C  0.08284143  0.08125770  0.35728392     0.02500
C1176       C  0.10993082  0.08106836  0.37706960    -0.04300
C1177       C  0.11639479  0.11283097  0.39174853    -0.00500
C1178       C  0.09456167  0.14312984  0.38801329    -0.03100
C1179       C  0.03362502  0.11191852  0.33317159     0.36200
C1180       C  0.14439751  0.11420504  0.41175427     0.39800
C1181       C  0.07737103  0.05005936  0.34065815     0.38900
C1182       C  0.09996631  0.17463453  0.40438007     0.35800
C1183       C  0.99929035  0.14320551  0.39716419     0.36500
C1184       C  0.04537857  0.26927113  0.34276856     0.39800
N1185       N  0.07313765  0.02515965  0.32737029    -0.38300
N1186       N  0.01153555  0.11192344  0.31701732    -0.39900
N1187       N  0.16683110  0.11548840  0.42761738    -0.37600
N1188       N  0.10402031  0.19978081  0.41742786    -0.40000
N1189       N  0.10833328  0.20244692  0.32248795    -0.39800
N1190       N  0.05516975  0.29457789  0.33172013    -0.37400
N1191       N  0.93345224  0.20712054  0.41524172    -0.38500
N1192       N  0.99067311  0.11790522  0.40875326    -0.40100
C1193       C  0.25731383  0.96156207  0.52269154    -0.05100
C1194       C  0.27828852  0.93034706  0.52136243     0.09100
C1195       C  0.27998890  0.91116469  0.49717894    -0.02400
C1196       C  0.26100754  0.92301106  0.47454339    -0.00700
C1197       C  0.24188686  0.95577124  0.47515054    -0.04300
C1198       C  0.24043516  0.97503628  0.49953615     0.02700
C1199       C  0.30113756  0.91918275  0.54457056     0.09500
C1200       C  0.30202253  0.87942890  0.49523987     0.35400
C1201       C  0.22344757  0.00974801  0.50074782     0.38900
C1202       C  0.29437245  0.88695432  0.55831349    -0.04700
C1203       C  0.31979094  0.87332001  0.57651094     0.02500
C1204       C  0.35151742  0.89252550  0.58186014    -0.04300
C1205       C  0.35540696  0.92732985  0.57111631    -0.00500
C1206       C  0.33125076  0.93979840  0.55163353    -0.03100
C1207       C  0.26162981  0.86745563  0.55319540     0.36200
C1208       C  0.38496133  0.95007716  0.57896491     0.39800
C1209       C  0.31329650  0.83947909  0.58969988     0.38900
C1210       C  0.33862151  0.97295886  0.53766563     0.35800
C1211       C  0.25345573  0.98002564  0.54797632     0.36500
C1212       C  0.26103022  0.90068639  0.45085013     0.39800
N1213       N  0.30815457  0.81243704  0.60018199    -0.38300
N1214       N  0.23545363  0.85195016  0.54914652    -0.39900
N1215       N  0.40805997  0.96889092  0.58511317    -0.37600
N1216       N  0.34447353  0.99933187  0.52646115    -0.40000
N1217       N  0.31940880  0.85407098  0.49324135    -0.39800
N1218       N  0.26119248  0.88269941  0.43207848    -0.37400
N1219       N  0.21033978  0.03767127  0.50179689    -0.38500
N1220       N  0.25036694  0.99461495  0.56819500    -0.40100
C1221       C  0.39513734  0.09526413  0.34847965    -0.05100
C1222       C  0.36767182  0.09589436  0.36778115     0.09100
C1223       C  0.37197550  0.11673974  0.39102526    -0.02400
C1224       C  0.40419038  0.13517523  0.39567386    -0.00700
C1225       C  0.43280291  0.13246862  0.37728552    -0.04300
C1226       C  0.42784469  0.11302989  0.35339017     0.02700
C1227       C  0.33556439  0.07209471  0.36538907     0.09500
C1228       C  0.34370608  0.11788955  0.41084761     0.35400
C1229       C  0.45643456  0.11122206  0.33392820     0.38900
C1230       C  0.33847676  0.03565046  0.37229994    -0.04700
C1231       C  0.30746905  0.01488691  0.37635427     0.02500
C1232       C  0.27334615  0.03050311  0.37365494    -0.04300
C1233       C  0.27047745  0.06618439  0.36475806    -0.00500
C1234       C  0.30152829  0.08676636  0.36030346    -0.03100
C1235       C  0.37342600  0.02013055  0.37687064     0.36200
C1236       C  0.23556035  0.08212891  0.36099694     0.39800
C1237       C  0.31071660  0.97828620  0.38548289     0.38900
C1238       C  0.29853877  0.12353661  0.35157266     0.35800
C1239       C  0.38974026  0.07598030  0.32374679     0.36500
C1240       C  0.40855056  0.15492165  0.42040009     0.39800
N1241       N  0.31328910  0.94914697  0.39288904    -0.38300
N1242       N  0.40137813  0.00787138  0.38043750    -0.39900
N1243       N  0.20784893  0.09514029  0.35790338    -0.37600
N1244       N  0.29617238  0.15286805  0.34456631    -0.40000
N1245       N  0.32110640  0.11878223  0.42658654    -0.39800
N1246       N  0.41197508  0.17062981  0.44012061    -0.37400
N1247       N  0.47931283  0.10979090  0.31843712    -0.38500
N1248       N  0.38525964  0.06072564  0.30395130    -0.40100
C1249       C  0.12346440  0.72758916  0.93638566    -0.05100
C1250       C  0.12187913  0.72112459  0.96415329     0.09100
C1251       C  0.13191015  0.68748726  0.97419864    -0.02400
C1252       C  0.14193290  0.66003341  0.95664192    -0.00700
C1253       C  0.14104028  0.66548230  0.92866871    -0.04300
C1254       C  0.13253159  0.69962368  0.91859311     0.02700
C1255       C  0.10857064  0.74877032  0.98333139     0.09500
C1256       C  0.13100211  0.68081307  0.00277017     0.35400
C1257       C  0.13139564  0.70543341  0.89001604     0.38900
C1258       C  0.07156896  0.75236790  0.98799400    -0.04700
C1259       C  0.05910031  0.77257725  0.00990718     0.02500
C1260       C  0.08364291  0.78821755  0.02792354    -0.04300
C1261       C  0.12068765  0.78590456  0.02241546    -0.00500
C1262       C  0.13296401  0.76678946  0.99995829    -0.03100
C1263       C  0.04644515  0.73337720  0.97115254     0.36200
C1264       C  0.14666399  0.80259554  0.03982528     0.39800
C1265       C  0.02103136  0.77508095  0.01492853     0.38900
C1266       C  0.17095667  0.76419045  0.99453787     0.35800
C1267       C  0.11558667  0.76292250  0.92626917     0.36500
C1268       C  0.15290608  0.62601519  0.96774752     0.39800
N1269       N  0.99067252  0.77700238  0.01898624    -0.38300
N1270       N  0.02652847  0.71802057  0.95773578    -0.39900
N1271       N  0.16853986  0.81528168  0.05308715    -0.37600
N1272       N  0.20123240  0.76205957  0.99020439    -0.40000
N1273       N  0.13028215  0.67555141  0.02552901    -0.39800
N1274       N  0.16176770  0.59953443  0.97757495    -0.37400
N1275       N  0.13033444  0.70996066  0.86717620    -0.38500
N1276       N  0.10956501  0.79127466  0.91830337    -0.40100
C1277       C  0.90855892  0.65076683  0.12115033    -0.05100
C1278       C  0.94178486  0.64852913  0.13428481     0.09100
C1279       C  0.95105442  0.61668053  0.14755896    -0.02400
C1280       C  0.92817667  0.58660386  0.14642219    -0.00700
C1281       C  0.89654717  0.58743280  0.13077005    -0.04300
C1282       C  0.88623344  0.62045189  0.11905240     0.02700
C1283       C  0.96800059  0.67883658  0.13184983     0.09500
C1284       C  0.98487430  0.61449625  0.16153949     0.35400
C1285       C  0.85379260  0.62323659  0.10334841     0.38900
C1286       C  0.97045753  0.70549063  0.15171247    -0.04700
C1287       C  0.99152128  0.73641155  0.14734592     0.02500
C1288       C  0.01028572  0.74077357  0.12308822    -0.04300
C1289       C  0.00973348  0.71283314  0.10408868    -0.00500
C1290       C  0.98856830  0.68218685  0.10837528    -0.03100
C1291       C  0.95025417  0.70158402  0.17619556     0.36200
C1292       C  0.03108523  0.71545193  0.08000654     0.39800
C1293       C  0.99241353  0.76453066  0.16717735     0.38900
C1294       C  0.98703412  0.65443568  0.08818983     0.35800
C1295       C  0.89805307  0.68419971  0.10879887     0.36500
C1296       C  0.93726968  0.55490274  0.16157529     0.39800
N1297       N  0.99317518  0.78703798  0.18297184    -0.38300
N1298       N  0.93412922  0.69829274  0.19574555    -0.39900
N1299       N  0.04823479  0.71691792  0.06082925    -0.37600
N1300       N  0.98567511  0.63234242  0.07208740    -0.40000
N1301       N  0.01194751  0.61277578  0.17260027    -0.39800
N1302       N  0.94450485  0.52970432  0.17379510    -0.37400
N1303       N  0.82798832  0.62562045  0.09075546    -0.38500
N1304       N  0.88977858  0.71093105  0.09902601    -0.40100
C1305       C  0.81454823  0.95096667  0.13897034    -0.05100
C1306       C  0.84776595  0.96669685  0.13262686     0.09100
C1307       C  0.84913772  0.00340545  0.12618622    -0.02400
C1308       C  0.81746475  0.02395371  0.12543386    -0.00700
C1309       C  0.78403078  0.00775872  0.13043356    -0.04300
C1310       C  0.78281681  0.97129090  0.13762733     0.02700
C1311       C  0.88084448  0.94401607  0.13066147     0.09500
C1312       C  0.88290725  0.01943195  0.11858663     0.35400
C1313       C  0.74869413  0.95433370  0.14286717     0.38900
C1314       C  0.88592770  0.92172103  0.10826980    -0.04700
C1315       C  0.91738745  0.90122061  0.10570517     0.02500
C1316       C  0.94464791  0.90336608  0.12527276    -0.04300
C1317       C  0.93944655  0.92566211  0.14774400    -0.00500
C1318       C  0.90754153  0.94556294  0.15054229    -0.03100
C1319       C  0.85942550  0.92127677  0.08712977     0.36200
C1320       C  0.96710846  0.92844763  0.16790173     0.39800
C1321       C  0.92262934  0.87989844  0.08184285     0.38900
C1322       C  0.90241292  0.96832694  0.17360762     0.35800
C1323       C  0.81291027  0.91337075  0.14573400     0.36500
C1324       C  0.81902789  0.06119032  0.11760960     0.39800
N1325       N  0.92684316  0.86298900  0.06277814    -0.38300
N1326       N  0.83835606  0.92112100  0.07023055    -0.39900
N1327       N  0.98925768  0.93078493  0.18391924    -0.37600
N1328       N  0.89826230  0.98665167  0.19192791    -0.40000
N1329       N  0.90986704  0.03203506  0.11235183    -0.39800
N1330       N  0.82025121  0.09088772  0.11133220    -0.37400
N1331       N  0.72156585  0.94061951  0.14703969    -0.38500
N1332       N  0.81165014  0.88331439  0.15095409    -0.40100
C1333       C  0.10933531  0.90209011  0.28730843    -0.05100
C1334       C  0.13620972  0.90083391  0.26761162     0.09100
C1335       C  0.17138685  0.91137557  0.27415101    -0.02400
C1336       C  0.17957381  0.92334025  0.30022573    -0.00700
C1337       C  0.15244588  0.92538739  0.31973376    -0.04300
C1338       C  0.11738950  0.91418780  0.31324317     0.02700
C1339       C  0.12664008  0.89030830  0.23962284     0.09500
C1340       C  0.19884652  0.91085881  0.25376934     0.35400
C1341       C  0.08952076  0.91466815  0.33340546     0.38900
C1342       C  0.12000239  0.91695311  0.22039623    -0.04700
C1343       C  0.10804116  0.90752964  0.19467847     0.02500
C1344       C  0.10193824  0.87126126  0.18800541    -0.04300
C1345       C  0.10976615  0.84449093  0.20698202    -0.00500
C1346       C  0.12206088  0.85403060  0.23273231    -0.03100
C1347       C  0.12492991  0.95424969  0.22727163     0.36200
C1348       C  0.10398095  0.80729137  0.20038767     0.39800
C1349       C  0.10284776  0.93535090  0.17485438     0.38900
C1350       C  0.12955242  0.82663877  0.25238418     0.35800
C1351       C  0.07305599  0.89179865  0.28063365     0.36500
C1352       C  0.21551343  0.93488103  0.30666445     0.39800
N1353       N  0.09879069  0.95749483  0.15903051    -0.38300
N1354       N  0.12890038  0.98398400  0.23274026    -0.39900
N1355       N  0.09935577  0.77757711  0.19514815    -0.37600
N1356       N  0.13556690  0.80493337  0.26819181    -0.40000
N1357       N  0.22062583  0.91067725  0.23738641    -0.39800
N1358       N  0.24418799  0.94410029  0.31184311    -0.37400
N1359       N  0.06737550  0.91507320  0.34951630    -0.38500
N1360       N  0.04412033  0.88363753  0.27528801    -0.40100
C1361       C  0.25465806  0.90857312  0.00710234    -0.05100
C1362       C  0.24158545  0.93543143  0.02420260     0.09100
C1363       C  0.25227320  0.97101037  0.01995821    -0.02400
C1364       C  0.27388312  0.97999810  0.99773482    -0.00700
C1365       C  0.28241978  0.95392367  0.97802815    -0.04300
C1366       C  0.27424450  0.91755929  0.98394220     0.02700
C1367       C  0.21255664  0.92629748  0.04384278     0.09500
C1368       C  0.23997851  0.99863476  0.03800355     0.35400
C1369       C  0.28537006  0.88876150  0.96644962     0.38900
C1370       C  0.21890973  0.92388197  0.07164756    -0.04700
C1371       C  0.19193769  0.91065045  0.08899426     0.02500
C1372       C  0.15894004  0.89896353  0.07848291    -0.04300
C1373       C  0.15246763  0.90278626  0.05081239    -0.00500
C1374       C  0.17864930  0.91711204  0.03379418    -0.03100
C1375       C  0.25337760  0.93418280  0.08224114     0.36200
C1376       C  0.11925452  0.89078290  0.03921931     0.39800
C1377       C  0.19866858  0.90744818  0.11736717     0.38900
C1378       C  0.17097737  0.92156335  0.00553394     0.35800
C1379       C  0.24652690  0.87145336  0.01290783     0.36500
C1380       C  0.28826589  0.01585841  0.99610280     0.39800
N1381       N  0.20393776  0.90483421  0.14004823    -0.38300
N1382       N  0.28086861  0.94264506  0.09068053    -0.39900
N1383       N  0.09350466  0.88095411  0.02892045    -0.37600
N1384       N  0.16491382  0.92504058  0.98302962    -0.40000
N1385       N  0.23015376  0.02066684  0.05240940    -0.39800
N1386       N  0.30024619  0.04431170  0.99528096    -0.37400
N1387       N  0.29410541  0.86555819  0.95268188    -0.38500
N1388       N  0.24003555  0.84190574  0.01756058    -0.40100
C1389       C  0.99014696  0.83822367  0.64906464    -0.05100
C1390       C  0.96072029  0.85142677  0.63444883     0.09100
C1391       C  0.94633383  0.83056924  0.61360250    -0.02400
C1392       C  0.96030608  0.79650313  0.60792188    -0.00700
C1393       C  0.99083659  0.78357135  0.62174672    -0.04300
C1394       C  0.00579105  0.80498925  0.64228507     0.02700
C1395       C  0.94487657  0.88764329  0.63989202     0.09500
C1396       C  0.91745464  0.84469762  0.59734835     0.35400
C1397       C  0.03707637  0.79293593  0.65675797     0.38900
C1398       C  0.96295974  0.91882224  0.63154704    -0.04700
C1399       C  0.94446542  0.95159986  0.62972745     0.02500
C1400       C  0.90755520  0.95320940  0.63551956    -0.04300
C1401       C  0.89027598  0.92279945  0.64598692    -0.00500
C1402       C  0.90918759  0.89041010  0.64891881    -0.03100
C1403       C  0.99992053  0.91672986  0.62305318     0.36200
C1404       C  0.85254230  0.92435339  0.65237676     0.39800
C1405       C  0.96276599  0.98299741  0.61970059     0.38900
C1406       C  0.89137951  0.85918962  0.65969093     0.35800
C1407       C  0.00426314  0.85882755  0.67116239     0.36500
C1408       C  0.94305185  0.77532210  0.58737174     0.39800
N1409       N  0.97744729  0.00797987  0.61168181    -0.38300
N1410       N  0.02946379  0.91510025  0.61639189    -0.39900
N1411       N  0.82238758  0.92550514  0.65735534    -0.37600
N1412       N  0.87731693  0.83418103  0.66826150    -0.40000
N1413       N  0.89451723  0.85607224  0.58441636    -0.39800
N1414       N  0.92860902  0.75839742  0.57135017    -0.37400
N1415       N  0.06230602  0.78367013  0.66815702    -0.38500
N1416       N  0.01559102  0.87521964  0.68880836    -0.40100
C1417       C  0.93995133  0.22617882  0.50268036    -0.05100
C1418       C  0.90614727  0.23197047  0.51429649     0.09100
C1419       C  0.88445077  0.25956828  0.50448578    -0.02400
C1420       C  0.89563811  0.28028118  0.48243486    -0.00700
C1421       C  0.92866093  0.27338059  0.46935912    -0.04300
C1422       C  0.95107426  0.24628989  0.48021462     0.02700
C1423       C  0.89144535  0.20591653  0.53430176     0.09500
C1424       C  0.85003195  0.26617015  0.51689147     0.35400
C1425       C  0.98503791  0.23758663  0.46788546     0.38900
C1426       C  0.89146665  0.21328164  0.56198774    -0.04700
C1427       C  0.87908750  0.18733394  0.58042583     0.02500
C1428       C  0.86691353  0.15387081  0.57123254    -0.04300
C1429       C  0.86565902  0.14727291  0.54338499    -0.00500
C1430       C  0.87747055  0.17326351  0.52510705    -0.03100
C1431       C  0.90516627  0.24713026  0.57145195     0.36200
C1432       C  0.85372662  0.11304801  0.53322482     0.39800
C1433       C  0.88070204  0.19423242  0.60885604     0.38900
C1434       C  0.87606604  0.16607405  0.49663424     0.35800
C1435       C  0.96313561  0.19895982  0.51378703     0.36500
C1436       C  0.87267491  0.30889301  0.47376058     0.39800
N1437       N  0.88198614  0.19959403  0.63158238    -0.38300
N1438       N  0.91608841  0.27421352  0.57896104    -0.39900
N1439       N  0.84464439  0.08608402  0.52428125    -0.37600
N1440       N  0.87502650  0.16041555  0.47394241    -0.40000
N1441       N  0.82266328  0.27148656  0.52684099    -0.39800
N1442       N  0.85355988  0.33153617  0.46751311    -0.37400
N1443       N  0.01211732  0.23041095  0.45813293    -0.38500
N1444       N  0.98170185  0.17743927  0.52281405    -0.40100
C1445       C  0.97064274  0.04903598  0.51316324    -0.05100
C1446       C  0.97851085  0.01500164  0.50309802     0.09100
C1447       C  0.95613659  0.98575613  0.50887246    -0.02400
C1448       C  0.92628067  0.99047530  0.52552318    -0.00700
C1449       C  0.92018849  0.02394928  0.53756182    -0.04300
C1450       C  0.94271805  0.05319901  0.53147762     0.02700
C1451       C  0.01168964  0.00990122  0.48757175     0.09500
C1452       C  0.96493881  0.95060771  0.49871908     0.35400
C1453       C  0.93968932  0.08701901  0.54523427     0.38900
C1454       C  0.04502102  0.00980080  0.50076100    -0.04700
C1455       C  0.07664933  0.00592701  0.48594979     0.02500
C1456       C  0.07478348  0.00214674  0.45804035    -0.04300
C1457       C  0.04131767  0.00276863  0.44488497    -0.00500
C1458       C  0.00983405  0.00667311  0.45968763    -0.03100
C1459       C  0.04660954  0.01346394  0.52958501     0.36200
C1460       C  0.03901157  0.99967432  0.41603908     0.39800
C1461       C  0.11073624  0.00442244  0.49956222     0.38900
C1462       C  0.97545432  0.00748797  0.44629395     0.35800
C1463       C  0.99233672  0.07949409  0.50536708     0.36500
C1464       C  0.90363862  0.96025523  0.53199915     0.39800
N1465       N  0.13761853  0.00305991  0.51087891    -0.38300
N1466       N  0.04776106  0.01656013  0.55255199    -0.39900
N1467       N  0.03652201  0.99714234  0.39309290    -0.37600
N1468       N  0.94800712  0.00797700  0.43568777    -0.40000
N1469       N  0.97221973  0.92261471  0.49065748    -0.39800
N1470       N  0.88560027  0.93615480  0.53720440    -0.37400
N1471       N  0.93992582  0.11450361  0.55571555    -0.38500
N1472       N  0.00963078  0.10364153  0.49900329    -0.40100
C1473       C  0.72355986  0.05473012  0.49575375    -0.05100
C1474       C  0.72097337  0.09089134  0.48845685     0.09100
C1475       C  0.73833228  0.11689905  0.50396355    -0.02400
C1476       C  0.75637849  0.10728981  0.52762571    -0.00700
C1477       C  0.75925059  0.07071008  0.53546978    -0.04300
C1478       C  0.74257727  0.04454136  0.51898065     0.02700
C1479       C  0.69395529  0.10271417  0.46822341     0.09500
C1480       C  0.73623114  0.15413231  0.49596179     0.35400
C1481       C  0.74262893  0.00715374  0.52639987     0.38900
C1482       C  0.65997793  0.11303864  0.47739185    -0.04700
C1483       C  0.63533210  0.12874648  0.45981492     0.02500
C1484       C  0.64386611  0.13337617  0.43250894    -0.04300
C1485       C  0.67737227  0.12161695  0.42298277    -0.00500
C1486       C  0.70254246  0.10655152  0.44090459    -0.03100
C1487       C  0.65066148  0.10813443  0.50532532     0.36200
C1488       C  0.68647437  0.12651617  0.39510634     0.39800
C1489       C  0.60125743  0.14030304  0.47038302     0.38900
C1490       C  0.73744084  0.09567899  0.43148897     0.35800
C1491       C  0.70536312  0.02810473  0.47971754     0.36500
C1492       C  0.77030598  0.13596596  0.54408647     0.39800
N1493       N  0.57462867  0.14904596  0.48003004    -0.38300
N1494       N  0.64333925  0.10418468  0.52757197    -0.39900
N1495       N  0.69372607  0.13056107  0.37285232    -0.37600
N1496       N  0.76533481  0.08692950  0.42402164    -0.40000
N1497       N  0.73455332  0.18374034  0.48952116    -0.39800
N1498       N  0.78069979  0.15927154  0.55710446    -0.37400
N1499       N  0.74216029  0.97721791  0.53202999    -0.38500
N1500       N  0.69083323  0.00694842  0.46686577    -0.40100
C1501       C  0.68304503  0.97648478  0.65583734    -0.05100
C1502       C  0.67196378  0.94837917  0.63894889     0.09100
C1503       C  0.69479129  0.93691423  0.61827956    -0.02400
C1504       C  0.72811546  0.95362018  0.61424921    -0.00700
C1505       C  0.73798439  0.98394568  0.62962673    -0.04300
C1506       C  0.71556932  0.99461888  0.65092005     0.02700
C1507       C  0.63488086  0.93313371  0.64081527     0.09500
C1508       C  0.68294884  0.90923883  0.60000521     0.35400
C1509       C  0.72615236  0.02393327  0.66805830     0.38900
C1510       C  0.60571340  0.95358617  0.63187547    -0.04700
C1511       C  0.57159048  0.93804008  0.62934698     0.02500
C1512       C  0.56645548  0.90085600  0.63439417    -0.04300
C1513       C  0.59532982  0.88117792  0.64531379    -0.00500
C1514       C  0.62922323  0.89737472  0.64867739    -0.03100
C1515       C  0.61126467  0.99038741  0.62368937     0.36200
C1516       C  0.59043796  0.84432263  0.65331566     0.39800
C1517       C  0.54263820  0.96065695  0.62000415     0.38900
C1518       C  0.65873311  0.87698744  0.65956173     0.35800
C1519       C  0.66033376  0.98740613  0.67779306     0.36500
C1520       C  0.75148524  0.93988373  0.59354852     0.39800
N1521       N  0.51978942  0.97887396  0.61249073    -0.38300
N1522       N  0.61564994  0.01968373  0.61714919    -0.39900
N1523       N  0.58681634  0.81489637  0.65978162    -0.37600
N1524       N  0.68233563  0.86075914  0.66820881    -0.40000
N1525       N  0.67326829  0.88739147  0.58537457    -0.39800
N1526       N  0.77020418  0.92837665  0.57731463    -0.37400
N1527       N  0.73464902  0.04731530  0.68173936    -0.38500
N1528       N  0.64207100  0.99616125  0.69522857    -0.40100
C1529       C  0.77993210  0.07100722  0.99461039    -0.05100
C1530       C  0.78369998  0.10772487  0.98913662     0.09100
C1531       C  0.76715085  0.13300329  0.00581672    -0.02400
C1532       C  0.74892649  0.12182450  0.02896571    -0.00700
C1533       C  0.74573095  0.08499573  0.03491183    -0.04300
C1534       C  0.76062873  0.05962093  0.01725799     0.02700
C1535       C  0.81075051  0.12004431  0.96930012     0.09500
C1536       C  0.77024742  0.17073803  0.99960537     0.35400
C1537       C  0.75828134  0.02185386  0.02339187     0.38900
C1538       C  0.80151338  0.12735726  0.94253471    -0.04700
C1539       C  0.82806693  0.13852196  0.92423135     0.02500
C1540       C  0.86368561  0.14296461  0.93292025    -0.04300
C1541       C  0.87178662  0.13891410  0.96036212    -0.00500
C1542       C  0.84587966  0.12609449  0.97816749    -0.03100
C1543       C  0.76477389  0.12342053  0.93397917     0.36200
C1544       C  0.90595858  0.15036845  0.97096185     0.39800
C1545       C  0.81868447  0.14555356  0.89668101     0.38900
C1546       C  0.85537549  0.11903054  0.00580251     0.35800
C1547       C  0.79755607  0.04510736  0.97763402     0.36500
C1548       C  0.73437902  0.14868569  0.04668053     0.39800
N1549       N  0.81097972  0.15150036  0.87475515    -0.38300
N1550       N  0.73537640  0.12045825  0.92721575    -0.39900
N1551       N  0.93241484  0.16004376  0.98042049    -0.37600
N1552       N  0.86286284  0.11314016  0.02778042    -0.40000
N1553       N  0.77268104  0.20077144  0.99453795    -0.39800
N1554       N  0.72358261  0.17127034  0.06018594    -0.37400
N1555       N  0.75649766  0.99176197  0.02841100    -0.38500
N1556       N  0.81179559  0.02453900  0.96410560    -0.40100
C1557       C  0.97869031  0.04550560  0.98892478    -0.05100
C1558       C  0.01196285  0.04290296  0.00172912     0.09100
C1559       C  0.03816738  0.06942670  0.99784028    -0.02400
C1560       C  0.03123442  0.09833540  0.98057523    -0.00700
C1561       C  0.99854682  0.09994425  0.96655522    -0.04300
C1562       C  0.97246844  0.07303398  0.97058924     0.02700
C1563       C  0.01939842  0.01090541  0.01825302     0.09500
C1564       C  0.07275527  0.06592181  0.01058375     0.35400
C1565       C  0.93995012  0.07158142  0.95492791     0.38900
C1566       C  0.02403951  0.97747470  0.00571509    -0.04700
C1567       C  0.02515762  0.94618047  0.02114607     0.02500
C1568       C  0.02565319  0.94871715  0.04917328    -0.04300
C1569       C  0.02142290  0.98225098  0.06174072    -0.00500
C1570       C  0.01732803  0.01318111  0.04623253    -0.03100
C1571       C  0.02772105  0.97543579  0.97692094     0.36200
C1572       C  0.01983961  0.98483475  0.09064634     0.39800
C1573       C  0.02499607  0.91161214  0.00817167     0.38900
C1574       C  0.01008594  0.04720111  0.05894939     0.35800
C1575       C  0.95125764  0.01881360  0.99391201     0.36500
C1576       C  0.05889409  0.12455683  0.97541569     0.39800
N1577       N  0.02431880  0.88410039  0.99769707    -0.38300
N1578       N  0.03098039  0.97393782  0.95397851    -0.39900
N1579       N  0.01851070  0.98713426  0.11366265    -0.37600
N1580       N  0.00413428  0.07432287  0.06903509    -0.40000
N1581       N  0.10037561  0.06293327  0.02069883    -0.39800
N1582       N  0.08101966  0.14535324  0.97113128    -0.37400
N1583       N  0.91377778  0.06799981  0.94294809    -0.38500
N1584       N  0.92954067  0.99747069  0.99785251    -0.40100
C1585       C  0.90556455  0.17266565  0.76939655    -0.05100
C1586       C  0.88247789  0.14317165  0.76620704     0.09100
C1587       C  0.87175137  0.12362052  0.78879881    -0.02400
C1588       C  0.88540241  0.13214766  0.81426175    -0.00700
C1589       C  0.91022630  0.16067752  0.81754236    -0.04300
C1590       C  0.91959521  0.18129937  0.79486522     0.02700
C1591       C  0.87335778  0.12938934  0.73887757     0.09500
C1592       C  0.84739367  0.09375849  0.78559720     0.35400
C1593       C  0.94556053  0.20982732  0.79719608     0.38900
C1594       C  0.89745681  0.10630109  0.72594591    -0.04700
C1595       C  0.88898923  0.09158339  0.70084074     0.02500
C1596       C  0.85599339  0.09966242  0.68821517    -0.04300
C1597       C  0.83161115  0.12254919  0.70142883    -0.00500
C1598       C  0.84031597  0.13730271  0.72666267    -0.03100
C1599       C  0.93110844  0.09743115  0.73873318     0.36200
C1600       C  0.79829620  0.13232350  0.68863652     0.39800
C1601       C  0.91452140  0.06777788  0.68825658     0.38900
C1602       C  0.81548929  0.16095027  0.74003418     0.35800
C1603       C  0.91558302  0.19353339  0.74620330     0.36500
C1604       C  0.87408670  0.11064074  0.83686043     0.39800
N1605       N  0.93522181  0.04907864  0.67835035    -0.38300
N1606       N  0.95788604  0.09041122  0.74899465    -0.39900
N1607       N  0.77173309  0.14022469  0.67841523    -0.37600
N1608       N  0.79572173  0.17984684  0.75075375    -0.40000
N1609       N  0.82794381  0.07001660  0.78296002    -0.39800
N1610       N  0.86530938  0.09299525  0.85466259    -0.37400
N1611       N  0.96650337  0.23242108  0.79894486    -0.38500
N1612       N  0.92343111  0.21024023  0.72767607    -0.40100
C1613       C  0.90408569  0.32301348  0.06040069    -0.05100
C1614       C  0.90250220  0.32985525  0.03268199     0.09100
C1615       C  0.88782629  0.36227031  0.02363087    -0.02400
C1616       C  0.87333596  0.38690547  0.04191680    -0.00700
C1617       C  0.87423007  0.38003698  0.06973803    -0.04300
C1618       C  0.89062333  0.34831627  0.07889939     0.02700
C1619       C  0.91532892  0.30299042  0.01250976     0.09500
C1620       C  0.88812186  0.37048005  0.99528624     0.35400
C1621       C  0.89334964  0.34145588  0.10728214     0.38900
C1622       C  0.89037559  0.28173982  0.99876829    -0.04700
C1623       C  0.90116753  0.26008726  0.97709941     0.02500
C1624       C  0.93757579  0.25941495  0.96854696    -0.04300
C1625       C  0.96259779  0.28080835  0.98289298    -0.00500
C1626       C  0.95148702  0.30195384  0.00483488    -0.03100
C1627       C  0.85304248  0.28302906  0.00660947     0.36200
C1628       C  0.99959018  0.28309604  0.97448097     0.39800
C1629       C  0.87384608  0.23945631  0.96353844     0.38900
C1630       C  0.97716268  0.32370666  0.01918971     0.35800
C1631       C  0.91933902  0.28980028  0.06980580     0.36500
C1632       C  0.85883197  0.42001017  0.03173547     0.39800
N1633       N  0.85144569  0.22368130  0.95286709    -0.38300
N1634       N  0.82329538  0.28423589  0.01281060    -0.39900
N1635       N  0.02910157  0.28530061  0.96779925    -0.37600
N1636       N  0.99752764  0.34099686  0.03078724    -0.40000
N1637       N  0.88858220  0.37705189  0.97271539    -0.39800
N1638       N  0.84770006  0.44608164  0.02266777    -0.37400
N1639       N  0.89595747  0.33594138  0.12992474    -0.38500
N1640       N  0.93150620  0.26324839  0.07730213    -0.40100
C1641       C  0.01463116  0.34675131  0.85381286    -0.05100
C1642       C  0.04759449  0.35627608  0.86530294     0.09100
C1643       C  0.06734581  0.33054178  0.87948167    -0.02400
C1644       C  0.05328181  0.29608683  0.88377240    -0.00700
C1645       C  0.01872248  0.28691966  0.87401336    -0.04300
C1646       C  0.00020447  0.31228897  0.85803855     0.02700
C1647       C  0.05964856  0.39440463  0.86605233     0.09500
C1648       C  0.10156151  0.34036824  0.89101725     0.35400
C1649       C  0.96602797  0.30346687  0.84610889     0.38900
C1650       C  0.04905942  0.41595170  0.88767409    -0.04700
C1651       C  0.06585460  0.44904082  0.89215427     0.02500
C1652       C  0.09381671  0.46066609  0.87525340    -0.04300
C1653       C  0.10163534  0.44093309  0.85197856    -0.00500
C1654       C  0.08465288  0.40770690  0.84744754    -0.03100
C1655       C  0.02160507  0.40337200  0.90587955     0.36200
C1656       C  0.12756422  0.45444977  0.83305723     0.39800
C1657       C  0.05344996  0.47131094  0.91387957     0.38900
C1658       C  0.09336314  0.38675469  0.82406344     0.35800
C1659       C  0.99505528  0.37297722  0.83836268     0.36500
C1660       C  0.07405339  0.27123183  0.89969333     0.39800
N1661       N  0.04205498  0.48850899  0.93103760    -0.38300
N1662       N  0.99968703  0.39327626  0.92031835    -0.39900
N1663       N  0.14801187  0.46545899  0.81781241    -0.37600
N1664       N  0.10006829  0.37003909  0.80531262    -0.40000
N1665       N  0.12872342  0.34838236  0.90026357    -0.39800
N1666       N  0.09082694  0.25158278  0.91236702    -0.37400
N1667       N  0.93865719  0.29666319  0.83665509    -0.38500
N1668       N  0.97948928  0.39391445  0.82599946    -0.40100
C1669       C  0.19178368  0.07541733  0.89712404    -0.05100
C1670       C  0.17254347  0.06740623  0.87363686     0.09100
C1671       C  0.18720219  0.04305491  0.85509370    -0.02400
C1672       C  0.22042005  0.02624838  0.86030844    -0.00700
C1673       C  0.23946491  0.03399370  0.88398161    -0.04300
C1674       C  0.22505103  0.05902234  0.90220065     0.02700
C1675       C  0.13618875  0.08376190  0.86940171     0.09500
C1676       C  0.16811369  0.03552294  0.83058314     0.35400
C1677       C  0.24381308  0.06713046  0.92679379     0.38900
C1678       C  0.13289283  0.11994375  0.86180612    -0.04700
C1679       C  0.09936910  0.13728864  0.86314934     0.02500
C1680       C  0.06858113  0.11829601  0.87115866    -0.04300
C1681       C  0.07141578  0.08134234  0.87658563    -0.00500
C1682       C  0.10512618  0.06431695  0.87610437    -0.03100
C1683       C  0.16436635  0.13965877  0.85366125     0.36200
C1684       C  0.04007376  0.06132181  0.88471236     0.39800
C1685       C  0.09667975  0.17505933  0.85719744     0.38900
C1686       C  0.10824105  0.02732564  0.88430221     0.35800
C1687       C  0.17686306  0.10013308  0.91643059     0.36500
C1688       C  0.23547218  0.00170759  0.84100364     0.39800
N1689       N  0.09445932  0.20520789  0.85248401    -0.38300
N1690       N  0.18951692  0.15533434  0.84711442    -0.39900
N1691       N  0.01516412  0.04521523  0.89120397    -0.37600
N1692       N  0.11082395  0.99787676  0.89098201    -0.40000
N1693       N  0.15284339  0.02961719  0.81099526    -0.39800
N1694       N  0.24761376  0.98220225  0.82557890    -0.37400
N1695       N  0.25864399  0.07380591  0.94642356    -0.38500
N1696       N  0.16488476  0.11987561  0.93175650    -0.40100
loop_ 
_geom_bond_atom_site_label_1 
_geom_bond_atom_site_label_2 
_geom_bond_distance 
_geom_bond_site_symmetry_2 
_ccdc_geom_bond_type 
O1          Cr19   2.015       .  S
O1            C9   1.266       .  A
O2          Cr19   1.978       .  S
O2            C3   1.257       .  A
C3            O4   1.267       .  A
C3         C1624   1.520       .  S
O4          Cr20   2.019   1_655  S
O5          Cr20   1.993   1_655  S
O5            C6   1.262       .  A
C6            O7   1.253       .  A
C6         C1561   1.474       .  S
O7          Cr21   1.974       .  S
O8          Cr21   1.962       .  S
O8            C9   1.258       .  A
C9         C1540   1.485       .  S
O10         Cr19   2.000       .  S
O10          C18   1.264       .  A
O11         Cr19   2.015       .  S
O11          C12   1.269   1_655  A
C12          O13   1.261       .  A
C12        C1645   1.507       .  S
O13         Cr20   1.974       .  S
O14         Cr20   2.011       .  S
O14          C15   1.269       .  A
C15          O16   1.269       .  A
C15        C1680   1.491       .  S
O16         Cr21   1.992   1_455  S
O17         Cr21   1.986       .  S
O17          C18   1.259       .  A
C18        C1589   1.505       .  S
Cr19         O22   1.788       .  S
Cr20         O22   1.773   1_455  S
Cr21         O22   1.776       .  S
O23         Cr41   2.036       .  S
O23          C31   1.273       .  A
O24         Cr41   1.970       .  S
O24          C25   1.256       .  A
C25          O26   1.266       .  A
C25        C1477   1.516       .  S
O26         Cr42   2.015       .  S
O27         Cr42   1.986       .  S
O27          C28   1.257       .  A
C28          O29   1.253       .  A
C28        C1449   1.467       .  S
O29         Cr43   1.976       .  S
O30         Cr43   1.953       .  S
O30          C31   1.256       .  A
C31        C1428   1.489       .  S
O32         Cr41   2.004       .  S
O32          C40   1.263       .  A
O33         Cr41   2.026       .  S
O33          C34   1.272       .  A
C34          O35   1.258   1_545  A
C34        C1505   1.499   1_545  S
O35         Cr42   1.967   1_565  S
O36         Cr42   2.015   1_565  S
O36          C37   1.271       .  A
C37          O38   1.268   1_565  A
C37        C1400   1.486       .  S
O38         Cr43   1.987       .  S
O39         Cr43   1.988       .  S
O39          C40   1.258       .  A
C40        C1596   1.498       .  S
Cr41         O44   1.780       .  S
Cr42         O44   1.772       .  S
Cr43         O44   1.774       .  S
O45         Cr63   2.023       .  S
O45          C53   1.266       .  A
O46         Cr63   1.948       .  S
O46          C47   1.253       .  A
C47          O48   1.264       .  A
C47        C1568   1.468       .  S
O48         Cr64   2.013       .  S
O49         Cr64   1.983       .  S
O49          C50   1.261       .  A
C50          O51   1.266       .  A
C50        C1260   1.492       .  S
O51         Cr65   2.012       .  S
O52         Cr65   1.975       .  S
O52          C53   1.258       .  A
C53        C1372   1.493       .  S
O54         Cr63   1.961       .  S
O54          C62   1.255       .  A
O55         Cr63   2.010       .  S
O55          C56   1.266   1_455  A
C56          O57   1.264       .  A
C56        C1316   1.495       .  S
O57         Cr64   1.985   1_655  S
O58         Cr64   2.010       .  S
O58          C59   1.269       .  A
C59          O60   1.269       .  A
C59        C1288   1.493       .  S
O60         Cr65   2.000       .  S
O61         Cr65   2.033       .  S
O61          C62   1.269       .  A
C62        C1344   1.490       .  S
Cr63         O66   1.774       .  S
Cr64         O66   1.775       .  S
Cr65         O66   1.777       .  S
O67         Cr85   2.023       .  S
O67          C75   1.269       .  A
O68         Cr85   1.947       .  S
O68          C69   1.250       .  A
C69          O70   1.264   1_565  A
C69        C1456   1.465   1_565  S
O70         Cr86   2.014       .  S
O71         Cr86   1.989   1_565  S
O71          C72   1.261       .  A
C72          O73   1.263       .  A
C72        C1197   1.503       .  S
O73         Cr87   2.006       .  S
O74         Cr87   1.990       .  S
O74          C75   1.262       .  A
C75        C1141   1.501       .  S
O76         Cr85   1.960       .  S
O76          C84   1.256       .  A
O77         Cr85   2.023   1_545  S
O77          C78   1.269       .  A
C78          O79   1.261       .  A
C78        C1176   1.501       .  S
O79         Cr86   1.978       .  S
O80         Cr86   2.010       .  S
O80          C81   1.270       .  A
C81          O82   1.267   1_545  A
C81        C1232   1.485       .  S
O82         Cr87   1.988       .  S
O83         Cr87   2.029       .  S
O83          C84   1.269       .  A
C84        C1337   1.486       .  S
Cr85         O88   1.765       .  S
Cr86         O88   1.769   1_545  S
Cr87         O88   1.770       .  S
O89        Cr107   2.024       .  S
O89          C97   1.268       .  A
O90        Cr107   1.979       .  S
O90          C91   1.257       .  A
C91          O92   1.265       .  A
C91        C1365   1.518       .  S
O92        Cr108   2.015   1_565  S
O93        Cr108   1.983       .  S
O93          C94   1.259       .  A
C94          O95   1.257       .  A
C94        C1057   1.470       .  S
O95        Cr109   1.984   1_545  S
O96        Cr109   1.962       .  S
O96          C97   1.256       .  A
C97        C1029   1.486       .  S
O98        Cr107   1.996       .  S
O98         C106   1.262       .  A
O99        Cr107   2.027       .  S
O99         C100   1.271   1_565  A
C100        O101   1.261       .  A
C100       C1673   1.496       .  S
O101       Cr108   1.975       .  S
O102       Cr108   2.008       .  S
O102        C103   1.269       .  A
C103        O104   1.265       .  A
C103       C1120   1.489       .  S
O104       Cr109   1.982   1_545  S
O105       Cr109   1.997       .  S
O105        C106   1.261       .  A
C106       C1085   1.487       .  S
Cr107       O110   1.780       .  S
Cr108       O110   1.775   1_545  S
Cr109       O110   1.779       .  S
O111       Cr129   1.988       .  S
O111        C119   1.260       .  A
O112       Cr129   2.022       .  S
O112        C113   1.269       .  A
C113        O114   1.260       .  A
C113        C952   1.497       .  S
O114       Cr130   1.984       .  S
O115       Cr130   2.009       .  S
O115        C116   1.265       .  A
C116        O117   1.260       .  A
C116       C1001   1.484       .  S
O117       Cr131   1.972       .  S
O118       Cr131   2.000       .  S
O118        C119   1.258       .  A
C119       C1204   1.494       .  S
O120       Cr129   2.035       .  S
O120        C128   1.274       .  A
O121       Cr129   1.993       .  S
O121        C122   1.263       .  A
C122        O123   1.266       .  A
C122        C973   1.488       .  S
O123       Cr130   2.007       .  S
O124       Cr130   1.998       .  S
O124        C125   1.265       .  A
C125        O126   1.260       .  A
C125       C1512   1.508       .  S
O126       Cr131   1.986       .  S
O127       Cr131   1.969       .  S
O127        C128   1.261       .  A
C128       C1092   1.504       .  S
Cr129       O132   1.777       .  S
Cr130       O132   1.785       .  S
Cr131       O132   1.773       .  S
O133       Cr151   2.021       .  S
O133        C141   1.266       .  A
O134       Cr151   1.945       .  S
O134        C135   1.252       .  A
C135        O136   1.265       .  A
C135       C1064   1.470       .  S
O136       Cr152   2.010       .  S
O137       Cr152   1.977       .  S
O137        C138   1.260       .  A
C138        O139   1.263       .  A
C138       C1533   1.485       .  S
O139       Cr153   2.006       .  S
O140       Cr153   1.980       .  S
O140        C141   1.258       .  A
C141        C917   1.497       .  S
O142       Cr151   1.959       .  S
O142        C150   1.256       .  A
O143       Cr151   2.016       .  S
O143        C144   1.267   1_545  A
C144        O145   1.261       .  A
C144        C868   1.493       .  S
O145       Cr152   1.979   1_565  S
O146       Cr152   2.001       .  S
O146        C147   1.268       .  A
C147        O148   1.270       .  A
C147       C1309   1.488       .  S
O148       Cr153   1.997       .  S
O149       Cr153   2.034       .  S
O149        C150   1.270       .  A
C150        C896   1.490       .  S
Cr151       O154   1.773       .  S
Cr152       O154   1.772       .  S
Cr153       O154   1.779       .  S
O155       Cr173   2.022       .  S
O155        C163   1.268       .  A
O156       Cr173   1.951       .  S
O156        C157   1.253       .  A
C157        O158   1.267       .  A
C157       C1008   1.486       .  S
O158       Cr174   2.025       .  S
O159       Cr174   1.982       .  S
O159        C160   1.261       .  A
C160        O161   1.265       .  A
C160        C812   1.493       .  S
O161       Cr175   2.008       .  S
O162       Cr175   1.974       .  S
O162        C163   1.258       .  A
C163       C1484   1.487       .  S
O164       Cr173   1.964       .  S
O164        C172   1.256       .  A
O165       Cr173   2.019       .  S
O165        C166   1.269       .  A
C166        O167   1.261       .  A
C166       C1225   1.490       .  S
O167       Cr174   1.973       .  S
O168       Cr174   2.015       .  S
O168        C169   1.270       .  A
C169        O170   1.267       .  A
C169        C840   1.486       .  S
O170       Cr175   1.991       .  S
O171       Cr175   2.026       .  S
O171        C172   1.267       .  A
C172        C889   1.487       .  S
Cr173       O176   1.770       .  S
Cr174       O176   1.770       .  S
Cr175       O176   1.774       .  S
O177       Cr195   1.982       .  S
O177        C185   1.262       .  A
O178       Cr195   2.023       .  S
O178        C179   1.269       .  A
C179        O180   1.259       .  A
C179        C924   1.500       .  S
O180       Cr196   1.983       .  S
O181       Cr196   2.012       .  S
O181        C182   1.264       .  A
C182        O183   1.253       .  A
C182        C700   1.471       .  S
O183       Cr197   1.953       .  S
O184       Cr197   2.021       .  S
O184        C185   1.268       .  A
C185        C749   1.497       .  S
O186       Cr195   2.028       .  S
O186        C194   1.270       .  A
O187       Cr195   1.990       .  S
O187        C188   1.265       .  A
C188        O189   1.268       .  A
C188       C1113   1.490       .  S
O189       Cr196   2.006       .  S
O190       Cr196   1.982       .  S
O190        C191   1.261       .  A
C191        O192   1.268       .  A
C191        C777   1.497       .  S
O192       Cr197   2.018       .  S
O193       Cr197   1.977       .  S
O193        C194   1.260       .  A
C194        C721   1.505       .  S
Cr195       O198   1.773       .  S
Cr196       O198   1.777       .  S
Cr197       O198   1.770       .  S
O199       Cr217   2.019       .  S
O199        C207   1.268       .  A
O200       Cr217   1.982       .  S
O200        C201   1.258       .  A
C201        O202   1.266       .  A
C201        C637   1.502       .  S
O202       Cr218   2.015       .  S
O203       Cr218   1.988       .  S
O203        C204   1.259       .  A
C204        O205   1.255       .  A
C204        C609   1.477       .  S
O205       Cr219   1.984       .  S
O206       Cr219   1.969       .  S
O206        C207   1.260       .  A
C207        C805   1.491       .  S
O208       Cr217   2.008       .  S
O208        C216   1.266       .  A
O209       Cr217   2.025       .  S
O209        C210   1.271       .  A
C210        O211   1.260       .  A
C210        C665   1.487       .  S
O211       Cr218   1.974       .  S
O212       Cr218   2.016       .  S
O212        C213   1.271       .  A
C213        O214   1.268       .  A
C213        C980   1.499       .  S
O214       Cr219   1.989       .  S
O215       Cr219   1.986       .  S
O215        C216   1.259       .  A
C216        C728   1.508       .  S
Cr217       O220   1.785       .  S
Cr218       O220   1.777       .  S
Cr219       O220   1.774       .  S
O221       Cr239   2.024       .  S
O221        C229   1.268       .  A
O222       Cr239   1.950       .  S
O222        C223   1.253       .  A
C223        O224   1.266       .  A
C223        C616   1.469       .  S
O224       Cr240   2.016       .  S
O225       Cr240   1.989       .  S
O225        C226   1.262       .  A
C226        O227   1.263       .  A
C226        C525   1.497       .  S
O227       Cr241   2.002       .  S
O228       Cr241   1.991       .  S
O228        C229   1.263       .  A
C229        C945   1.508       .  S
O230       Cr239   1.973       .  S
O230        C238   1.259       .  A
O231       Cr239   2.016       .  S
O231        C232   1.268       .  A
C232        O233   1.262       .  A
C232        C833   1.505       .  S
O233       Cr240   1.983       .  S
O234       Cr240   2.010       .  S
O234        C235   1.268       .  A
C235        O236   1.270       .  A
C235        C553   1.493       .  S
O236       Cr241   2.003       .  S
O237       Cr241   2.022       .  S
O237        C238   1.268       .  A
C238        C581   1.497       .  S
Cr239       O242   1.777       .  S
Cr240       O242   1.774       .  S
Cr241       O242   1.772       .  S
O243       Cr261   2.014       .  S
O243        C251   1.265       .  A
O244       Cr261   1.953       .  S
O244        C245   1.253       .  A
C245        O246   1.264       .  A
C245        C693   1.475       .  S
O246       Cr262   2.015       .  S
O247       Cr262   1.985       .  S
O247        C248   1.263       .  A
C248        O249   1.263       .  A
C248       C1036   1.489       .  S
O249       Cr263   2.002       .  S
O250       Cr263   1.982       .  S
O250        C251   1.259       .  A
C251        C504   1.495       .  S
O252       Cr261   1.969       .  S
O252        C260   1.259       .  A
O253       Cr261   2.013       .  S
O253        C254   1.267       .  A
C254        O255   1.260       .  A
C254        C469   1.493       .  S
O255       Cr262   1.972       .  S
O256       Cr262   1.996       .  S
O256        C257   1.265       .  A
C257        O258   1.270       .  A
C257        C861   1.490       .  S
O258       Cr263   2.005       .  S
O259       Cr263   2.025       .  S
O259        C260   1.269       .  A
C260        C588   1.501       .  S
Cr261       O264   1.778       .  S
Cr262       O264   1.771       .  S
Cr263       O264   1.774       .  S
O265       Cr283   2.026       .  S
O265        C273   1.269       .  A
O266       Cr283   1.975       .  S
O266        C267   1.258       .  A
C267        O268   1.265       .  A
C267        C497   1.515       .  S
O268       Cr284   2.011       .  S
O269       Cr284   1.987       .  S
O269        C270   1.259       .  A
C270        O271   1.255       .  A
C270        C413   1.473       .  S
O271       Cr285   1.975       .  S
O272       Cr285   1.957       .  S
O272        C273   1.255       .  A
C273       C1253   1.486       .  S
O274       Cr283   1.994       .  S
O274        C282   1.261       .  A
O275       Cr283   2.011       .  S
O275        C276   1.270       .  A
C276        O277   1.264       .  A
C276        C784   1.506       .  S
O277       Cr284   1.983       .  S
O278       Cr284   2.022       .  S
O278        C279   1.271       .  A
C279        O280   1.265       .  A
C279       C1652   1.488       .  S
O280       Cr285   1.985       .  S
O281       Cr285   1.987       .  S
O281        C282   1.258       .  A
C282        C448   1.487       .  S
Cr283       O286   1.781       .  S
Cr284       O286   1.777       .  S
Cr285       O286   1.777       .  S
O287       Cr305   2.026       .  S
O287        C295   1.274       .  A
O288       Cr305   1.985       .  S
O288        C289   1.260       .  A
C289        O290   1.265       .  A
C289       C1148   1.519       .  S
O290       Cr306   2.010   1_455  S
O291       Cr306   2.008   1_455  S
O291        C292   1.261       .  A
C292        O293   1.246       .  A
C292        C385   1.485       .  S
O293       Cr307   1.967       .  S
O294       Cr307   1.986       .  S
O294        C295   1.267       .  A
C295        C532   1.500       .  S
O296       Cr305   2.008       .  S
O296        C304   1.261       .  A
O297       Cr305   2.016       .  S
O297        C298   1.270       .  A
C298        O299   1.262   1_455  A
C298       C1393   1.504   1_455  S
O299       Cr306   1.973       .  S
O300       Cr306   2.015       .  S
O300        C301   1.274       .  A
C301        O302   1.272       .  A
C301        C672   1.494       .  S
O302       Cr307   1.992   1_655  S
O303       Cr307   1.975       .  S
O303        C304   1.253       .  A
C304        C441   1.497       .  S
Cr305       O308   1.781       .  S
Cr306       O308   1.772   1_655  S
Cr307       O308   1.775       .  S
O309       Cr327   1.969       .  S
O309        C317   1.259       .  A
O310       Cr327   1.982       .  S
O310        C311   1.258       .  A
C311        O312   1.258       .  A
C311        C392   1.463       .  S
O312       Cr328   1.984       .  S
O313       Cr328   2.008       .  S
O313        C314   1.263       .  A
C314        O315   1.261       .  A
C314       C1421   1.515       .  S
O315       Cr329   1.992       .  S
O316       Cr329   2.036       .  S
O316        C317   1.273       .  A
C317        C644   1.521       .  S
O318       Cr327   1.995       .  S
O318        C326   1.260       .  A
O319       Cr327   1.993   1_455  S
O319        C320   1.267       .  A
C320        O321   1.270       .  A
C320        C560   1.507       .  S
O321       Cr328   2.020   1_455  S
O322       Cr328   1.975   1_455  S
O322        C323   1.264   1_455  A
C323        O324   1.275       .  A
C323       C1169   1.501   1_655  S
O324       Cr329   2.031       .  S
O325       Cr329   1.997       .  S
O325        C326   1.262       .  A
C326        C364   1.486       .  S
Cr327       O330   1.774       .  S
Cr328       O330   1.773       .  S
Cr329       O330   1.773       .  S
O331       Cr349   2.021       .  S
O331        C339   1.268       .  A
O332       Cr349   1.953       .  S
O332        C333   1.253       .  A
C333        O334   1.265       .  A
C333        C420   1.468       .  S
O334       Cr350   2.013       .  S
O335       Cr350   1.993       .  S
O335        C336   1.263       .  A
C336        O337   1.263       .  A
C336        C756   1.508       .  S
O337       Cr351   2.007       .  S
O338       Cr351   1.984       .  S
O338        C339   1.261       .  A
C339       C1617   1.496       .  S
O340       Cr349   1.968       .  S
O340        C348   1.259       .  A
O341       Cr349   2.019       .  S
O341        C342   1.268       .  A
C342        O343   1.262       .  A
C342       C1281   1.508       .  S
O343       Cr350   1.984       .  S
O344       Cr350   2.006       .  S
O344        C345   1.269       .  A
C345        O346   1.265       .  A
C345        C476   1.477       .  S
O346       Cr351   1.983       .  S
O347       Cr351   2.027       .  S
O347        C348   1.269       .  A
C348        C357   1.502       .  S
Cr349       O352   1.769       .  S
Cr350       O352   1.770       .  S
Cr351       O352   1.771       .  S
C353        C354   1.410       .  A
C353        C358   1.416       .  A
C353        C371   1.450       .  S
C354        C359   1.504       .  S
C354        C355   1.411       .  A
C355        C356   1.412       .  A
C355        C360   1.451       .  S
C356        C357   1.420       .  A
C356        C372   1.452       .  S
C357        C358   1.421       .  A
C358        C361   1.450       .  S
C359        C362   1.414       .  A
C359        C366   1.411       .  A
C360        N377   1.157       .  T
C361        N379   1.157       .  T
C362        C363   1.415       .  A
C362        C367   1.450       .  S
C363        C364   1.411       .  A
C363        C369   1.450       .  S
C364        C365   1.414       .  A
C365        C366   1.412       .  A
C365        C368   1.451       .  S
C366        C370   1.451       .  S
C367        N374   1.157       .  T
C368        N375   1.157       .  T
C369        N373   1.157       .  T
C370        N376   1.157       .  T
C371        N380   1.157       .  T
C372        N378   1.157       .  T
C381        C382   1.403   1_455  A
C381        C386   1.400       .  A
C381        C399   1.454       .  S
C382        C387   1.483       .  S
C382        C383   1.411       .  A
C383        C384   1.411       .  A
C383        C388   1.450       .  S
C384        C385   1.414   1_655  A
C384        C400   1.450       .  S
C385        C386   1.425       .  A
C386        C389   1.454       .  S
C387        C390   1.410       .  A
C387        C394   1.411   1_655  A
C388        N405   1.157       .  T
C389        N407   1.158       .  T
C390        C391   1.407       .  A
C390        C395   1.451       .  S
C391        C392   1.409       .  A
C391        C397   1.449       .  S
C392        C393   1.407   1_655  A
C393        C394   1.403       .  A
C393        C396   1.451       .  S
C394        C398   1.451       .  S
C395        N402   1.157       .  T
C396        N403   1.157       .  T
C397        N401   1.156       .  T
C398        N404   1.157       .  T
C399        N408   1.157       .  T
C400        N406   1.157       .  T
C409        C410   1.412       .  A
C409        C414   1.408   1_554  A
C409        C427   1.451       .  S
C410        C415   1.484   1_455  S
C410        C411   1.405   1_554  A
C411        C412   1.403       .  A
C411        C416   1.454       .  S
C412        C413   1.417       .  A
C412        C428   1.449       .  S
C413        C414   1.411       .  A
C414        C417   1.451       .  S
C415        C418   1.405       .  A
C415        C422   1.414       .  A
C416        N433   1.157   1_455  T
C417        N435   1.157       .  T
C418        C419   1.401       .  A
C418        C423   1.452   1_655  S
C419        C420   1.415       .  A
C419        C425   1.451       .  S
C420        C421   1.408       .  A
C421        C422   1.407       .  A
C421        C424   1.449       .  S
C422        C426   1.451   1_554  S
C423        N430   1.157       .  T
C424        N431   1.157   1_554  T
C425        N429   1.157       .  T
C426        N432   1.157       .  T
C427        N436   1.157       .  T
C428        N434   1.157       .  T
C437        C438   1.412       .  A
C437        C442   1.417       .  A
C437        C455   1.450       .  S
C438        C443   1.498       .  S
C438        C439   1.406       .  A
C439        C440   1.408       .  A
C439        C444   1.453       .  S
C440        C441   1.424       .  A
C440        C456   1.452       .  S
C441        C442   1.416       .  A
C442        C445   1.449       .  S
C443        C446   1.410       .  A
C443        C450   1.411       .  A
C444        N461   1.157       .  T
C445        N463   1.157       .  T
C446        C447   1.408       .  A
C446        C451   1.452       .  S
C447        C448   1.415       .  A
C447        C453   1.451       .  S
C448        C449   1.415       .  A
C449        C450   1.415       .  A
C449        C452   1.450       .  S
C450        C454   1.449       .  S
C451        N458   1.157       .  T
C452        N459   1.157       .  T
C453        N457   1.157       .  T
C454        N460   1.157       .  T
C455        N464   1.157       .  T
C456        N462   1.157       .  T
C465        C466   1.410       .  A
C465        C470   1.409       .  A
C465        C483   1.453       .  S
C466        C471   1.498       .  S
C466        C467   1.410       .  A
C467        C468   1.413       .  A
C467        C472   1.450       .  S
C468        C469   1.417       .  A
C468        C484   1.450       .  S
C469        C470   1.420       .  A
C470        C473   1.453       .  S
C471        C474   1.413       .  A
C471        C478   1.413       .  A
C472        N489   1.157       .  T
C473        N491   1.158       .  T
C474        C475   1.412       .  A
C474        C479   1.450       .  S
C475        C476   1.411       .  A
C475        C481   1.451       .  S
C476        C477   1.411       .  A
C477        C478   1.409       .  A
C477        C480   1.452       .  S
C478        C482   1.452       .  S
C479        N486   1.157       .  T
C480        N487   1.157       .  T
C481        N485   1.157       .  T
C482        N488   1.157       .  T
C483        N492   1.157       .  T
C484        N490   1.157       .  T
C493        C494   1.407       .  A
C493        C498   1.416   1_554  A
C493        C511   1.452       .  S
C494        C499   1.502       .  S
C494        C495   1.408   1_554  A
C495        C496   1.413       .  A
C495        C500   1.453   1_556  S
C496        C497   1.428       .  A
C496        C512   1.452       .  S
C497        C498   1.427       .  A
C498        C501   1.451       .  S
C499        C502   1.406       .  A
C499        C506   1.413       .  A
C500        N517   1.158       .  T
C501        N519   1.158       .  T
C502        C503   1.408       .  A
C502        C507   1.453   1_554  S
C503        C504   1.419       .  A
C503        C509   1.446       .  S
C504        C505   1.414       .  A
C505        C506   1.419       .  A
C505        C508   1.448       .  S
C506        C510   1.449       .  S
C507        N514   1.157       .  T
C508        N515   1.157       .  T
C509        N513   1.155       .  T
C510        N516   1.157       .  T
C511        N520   1.157       .  T
C512        N518   1.157       .  T
C521        C522   1.411       .  A
C521        C526   1.416       .  A
C521        C539   1.450       .  S
C522        C527   1.500       .  S
C522        C523   1.408       .  A
C523        C524   1.410       .  A
C523        C528   1.451       .  S
C524        C525   1.419       .  A
C524        C540   1.451       .  S
C525        C526   1.417       .  A
C526        C529   1.450       .  S
C527        C530   1.410       .  A
C527        C534   1.408       .  A
C528        N545   1.157       .  T
C529        N547   1.157       .  T
C530        C531   1.418       .  A
C530        C535   1.450       .  S
C531        C532   1.420       .  A
C531        C537   1.449       .  S
C532        C533   1.419       .  A
C533        C534   1.409       .  A
C533        C536   1.448       .  S
C534        C538   1.453       .  S
C535        N542   1.157       .  T
C536        N543   1.156       .  T
C537        N541   1.157       .  T
C538        N544   1.157       .  T
C539        N548   1.157       .  T
C540        N546   1.157       .  T
C549        C550   1.412       .  A
C549        C554   1.411       .  A
C549        C567   1.450       .  S
C550        C555   1.510       .  S
C550        C551   1.415       .  A
C551        C552   1.420       .  A
C551        C556   1.449       .  S
C552        C553   1.413       .  A
C552        C568   1.448       .  S
C553        C554   1.414       .  A
C554        C557   1.451       .  S
C555        C558   1.411       .  A
C555        C562   1.412       .  A
C556        N573   1.157       .  T
C557        N575   1.157       .  T
C558        C559   1.418       .  A
C558        C563   1.450       .  S
C559        C560   1.421       .  A
C559        C565   1.450       .  S
C560        C561   1.420       .  A
C561        C562   1.416       .  A
C561        C564   1.451       .  S
C562        C566   1.451       .  S
C563        N570   1.157       .  T
C564        N571   1.157       .  T
C565        N569   1.157       .  T
C566        N572   1.157       .  T
C567        N576   1.156       .  T
C568        N574   1.157       .  T
C577        C578   1.410       .  A
C577        C582   1.413       .  A
C577        C595   1.451       .  S
C578        C583   1.501       .  S
C578        C579   1.409       .  A
C579        C580   1.414       .  A
C579        C584   1.450       .  S
C580        C581   1.419       .  A
C580        C596   1.450       .  S
C581        C582   1.417       .  A
C582        C585   1.450       .  S
C583        C586   1.410       .  A
C583        C590   1.410       .  A
C584        N601   1.157       .  T
C585        N603   1.157       .  T
C586        C587   1.415       .  A
C586        C591   1.450       .  S
C587        C588   1.421       .  A
C587        C593   1.450       .  S
C588        C589   1.418       .  A
C589        C590   1.412       .  A
C589        C592   1.451       .  S
C590        C594   1.451       .  S
C591        N598   1.157       .  T
C592        N599   1.157       .  T
C593        N597   1.157       .  T
C594        N600   1.157       .  T
C595        N604   1.157       .  T
C596        N602   1.157       .  T
C605        C606   1.406       .  A
C605        C610   1.401       .  A
C605        C623   1.454       .  S
C606        C611   1.487       .  S
C606        C607   1.412       .  A
C607        C608   1.411       .  A
C607        C612   1.450       .  S
C608        C609   1.413       .  A
C608        C624   1.451       .  S
C609        C610   1.417       .  A
C610        C613   1.451       .  S
C611        C614   1.414       .  A
C611        C618   1.408       .  A
C612        N629   1.157       .  T
C613        N631   1.157       .  T
C614        C615   1.406       .  A
C614        C619   1.452       .  S
C615        C616   1.407       .  A
C615        C621   1.450       .  S
C616        C617   1.414       .  A
C617        C618   1.405       .  A
C617        C620   1.452       .  S
C618        C622   1.451       .  S
C619        N626   1.157       .  T
C620        N627   1.157       .  T
C621        N625   1.157       .  T
C622        N628   1.157       .  T
C623        N632   1.157       .  T
C624        N630   1.157       .  T
C633        C634   1.412       .  A
C633        C638   1.415       .  A
C633        C651   1.451       .  S
C634        C639   1.508       .  S
C634        C635   1.412       .  A
C635        C636   1.417       .  A
C635        C640   1.450       .  S
C636        C637   1.417       .  A
C636        C652   1.450       .  S
C637        C638   1.418       .  A
C638        C641   1.452       .  S
C639        C642   1.410       .  A
C639        C646   1.408       .  A
C640        N657   1.157       .  T
C641        N659   1.157       .  T
C642        C643   1.419       .  A
C642        C647   1.450       .  S
C643        C644   1.424       .  A
C643        C649   1.450       .  S
C644        C645   1.430       .  A
C645        C646   1.415       .  A
C645        C648   1.452       .  S
C646        C650   1.452       .  S
C647        N654   1.157       .  T
C648        N655   1.158       .  T
C649        N653   1.157       .  T
C650        N656   1.157       .  T
C651        N660   1.157       .  T
C652        N658   1.157       .  T
C661        C662   1.412       .  A
C661        C666   1.417       .  A
C661        C679   1.448       .  S
C662        C667   1.502       .  S
C662        C663   1.411       .  A
C663        C664   1.409       .  A
C663        C668   1.453       .  S
C664        C665   1.414       .  A
C664        C680   1.449       .  S
C665        C666   1.414       .  A
C666        C669   1.449       .  S
C667        C670   1.411       .  A
C667        C674   1.410       .  A
C668        N685   1.157       .  T
C669        N687   1.157       .  T
C670        C671   1.414       .  A
C670        C675   1.451       .  S
C671        C672   1.417       .  A
C671        C677   1.450       .  S
C672        C673   1.417       .  A
C673        C674   1.413       .  A
C673        C676   1.451       .  S
C674        C678   1.450       .  S
C675        N682   1.157       .  T
C676        N683   1.157       .  T
C677        N681   1.157       .  T
C678        N684   1.157       .  T
C679        N688   1.157       .  T
C680        N686   1.156       .  T
C689        C690   1.407       .  A
C689        C694   1.403       .  A
C689        C707   1.452       .  S
C690        C695   1.486       .  S
C690        C691   1.412       .  A
C691        C692   1.410       .  A
C691        C696   1.450   1_554  S
C692        C693   1.411       .  A
C692        C708   1.450       .  S
C693        C694   1.415       .  A
C694        C697   1.453       .  S
C695        C698   1.411   1_554  A
C695        C702   1.409   1_554  A
C696        N713   1.157       .  T
C697        N715   1.157       .  T
C698        C699   1.408       .  A
C698        C703   1.452       .  S
C699        C700   1.411       .  A
C699        C705   1.450       .  S
C700        C701   1.412       .  A
C701        C702   1.405       .  A
C701        C704   1.452       .  S
C702        C706   1.451   1_556  S
C703        N710   1.157       .  T
C704        N711   1.157       .  T
C705        N709   1.157       .  T
C706        N712   1.157       .  T
C707        N716   1.157       .  T
C708        N714   1.157       .  T
C717        C718   1.411       .  A
C717        C722   1.413       .  A
C717        C735   1.452       .  S
C718        C723   1.508       .  S
C718        C719   1.413       .  A
C719        C720   1.418       .  A
C719        C724   1.450       .  S
C720        C721   1.419       .  A
C720        C736   1.451       .  S
C721        C722   1.422       .  A
C722        C725   1.451       .  S
C723        C726   1.414       .  A
C723        C730   1.408       .  A
C724        N741   1.157       .  T
C725        N743   1.157       .  T
C726        C727   1.419       .  A
C726        C731   1.450       .  S
C727        C728   1.417       .  A
C727        C733   1.448       .  S
C728        C729   1.427       .  A
C729        C730   1.413       .  A
C729        C732   1.452       .  S
C730        C734   1.452       .  S
C731        N738   1.157       .  T
C732        N739   1.158       .  T
C733        N737   1.157       .  T
C734        N740   1.157       .  T
C735        N744   1.157       .  T
C736        N742   1.157       .  T
C745        C746   1.414       .  A
C745        C750   1.414       .  A
C745        C763   1.450       .  S
C746        C751   1.508       .  S
C746        C747   1.413       .  A
C747        C748   1.413       .  A
C747        C752   1.451       .  S
C748        C749   1.417       .  A
C748        C764   1.449       .  S
C749        C750   1.415       .  A
C750        C753   1.450       .  S
C751        C754   1.412       .  A
C751        C758   1.411   1_556  A
C752        N769   1.157       .  T
C753        N771   1.157       .  T
C754        C755   1.417   1_556  A
C754        C759   1.451       .  S
C755        C756   1.421       .  A
C755        C761   1.450       .  S
C756        C757   1.423       .  A
C757        C758   1.412       .  A
C757        C760   1.452       .  S
C758        C762   1.453       .  S
C759        N766   1.157       .  T
C760        N767   1.157       .  T
C761        N765   1.158       .  T
C762        N768   1.157       .  T
C763        N772   1.157       .  T
C764        N770   1.157       .  T
C773        C774   1.412       .  A
C773        C778   1.414       .  A
C773        C791   1.451       .  S
C774        C779   1.506       .  S
C774        C775   1.412       .  A
C775        C776   1.415       .  A
C775        C780   1.450       .  S
C776        C777   1.415       .  A
C776        C792   1.450       .  S
C777        C778   1.419       .  A
C778        C781   1.451       .  S
C779        C782   1.410       .  A
C779        C786   1.410       .  A
C780        N797   1.157       .  T
C781        N799   1.157       .  T
C782        C783   1.413       .  A
C782        C787   1.452       .  S
C783        C784   1.424       .  A
C783        C789   1.452       .  S
C784        C785   1.421       .  A
C785        C786   1.417       .  A
C785        C788   1.449       .  S
C786        C790   1.450       .  S
C787        N794   1.157       .  T
C788        N795   1.157       .  T
C789        N793   1.158       .  T
C790        N796   1.157       .  T
C791        N800   1.157       .  T
C792        N798   1.157       .  T
C801        C802   1.409       .  A
C801        C806   1.404       .  A
C801        C819   1.453       .  S
C802        C807   1.496       .  S
C802        C803   1.411       .  A
C803        C804   1.417       .  A
C803        C808   1.449       .  S
C804        C805   1.416       .  A
C804        C820   1.449       .  S
C805        C806   1.416       .  A
C806        C809   1.450       .  S
C807        C810   1.409       .  A
C807        C814   1.409       .  A
C808        N825   1.157       .  T
C809        N827   1.157       .  T
C810        C811   1.409       .  A
C810        C815   1.452       .  S
C811        C812   1.419       .  A
C811        C817   1.451       .  S
C812        C813   1.418       .  A
C813        C814   1.414       .  A
C813        C816   1.450       .  S
C814        C818   1.450       .  S
C815        N822   1.157       .  T
C816        N823   1.157       .  T
C817        N821   1.157       .  T
C818        N824   1.157       .  T
C819        N828   1.157       .  T
C820        N826   1.157       .  T
C829        C830   1.410       .  A
C829        C834   1.417       .  A
C829        C847   1.449       .  S
C830        C835   1.504       .  S
C830        C831   1.410       .  A
C831        C832   1.413       .  A
C831        C836   1.452       .  S
C832        C833   1.422       .  A
C832        C848   1.451       .  S
C833        C834   1.420       .  A
C834        C837   1.451       .  S
C835        C838   1.413       .  A
C835        C842   1.413       .  A
C836        N853   1.157       .  T
C837        N855   1.157       .  T
C838        C839   1.413       .  A
C838        C843   1.451       .  S
C839        C840   1.413       .  A
C839        C845   1.451       .  S
C840        C841   1.412       .  A
C841        C842   1.416       .  A
C841        C844   1.450       .  S
C842        C846   1.449       .  S
C843        N850   1.157       .  T
C844        N851   1.157       .  T
C845        N849   1.157       .  T
C846        N852   1.157       .  T
C847        N856   1.157       .  T
C848        N854   1.158       .  T
C857        C858   1.414       .  A
C857        C862   1.417       .  A
C857        C875   1.450       .  S
C858        C863   1.506       .  S
C858        C859   1.411       .  A
C859        C860   1.413       .  A
C859        C864   1.450       .  S
C860        C861   1.415       .  A
C860        C876   1.450       .  S
C861        C862   1.413       .  A
C862        C865   1.450       .  S
C863        C866   1.412       .  A
C863        C870   1.412       .  A
C864        N881   1.157       .  T
C865        N883   1.157       .  T
C866        C867   1.417       .  A
C866        C871   1.449       .  S
C867        C868   1.414       .  A
C867        C873   1.450       .  S
C868        C869   1.417       .  A
C869        C870   1.413       .  A
C869        C872   1.452       .  S
C870        C874   1.451       .  S
C871        N878   1.157       .  T
C872        N879   1.158       .  T
C873        N877   1.157       .  T
C874        N880   1.157       .  T
C875        N884   1.157       .  T
C876        N882   1.157       .  T
C885        C886   1.409       .  A
C885        C890   1.409       .  A
C885        C903   1.451       .  S
C886        C891   1.498       .  S
C886        C887   1.413       .  A
C887        C888   1.415       .  A
C887        C892   1.449       .  S
C888        C889   1.412       .  A
C888        C904   1.450       .  S
C889        C890   1.417       .  A
C890        C893   1.452       .  S
C891        C894   1.408       .  A
C891        C898   1.413       .  A
C892        N909   1.157       .  T
C893        N911   1.157       .  T
C894        C895   1.407       .  A
C894        C899   1.452       .  S
C895        C896   1.419       .  A
C895        C901   1.453       .  S
C896        C897   1.414       .  A
C897        C898   1.416       .  A
C897        C900   1.449       .  S
C898        C902   1.449       .  S
C899        N906   1.157       .  T
C900        N907   1.157       .  T
C901        N905   1.157       .  T
C902        N908   1.157       .  T
C903        N912   1.157       .  T
C904        N910   1.157       .  T
C913        C914   1.416       .  A
C913        C918   1.422       .  A
C913        C931   1.448       .  S
C914        C919   1.507       .  S
C914        C915   1.408       .  A
C915        C916   1.407       .  A
C915        C920   1.454       .  S
C916        C917   1.417       .  A
C916        C932   1.446       .  S
C917        C918   1.414       .  A
C918        C921   1.449       .  S
C919        C922   1.414       .  A
C919        C926   1.412       .  A
C920        N937   1.157   1_554  T
C921        N939   1.157       .  T
C922        C923   1.413   1_554  A
C922        C927   1.452       .  S
C923        C924   1.415       .  A
C923        C929   1.449       .  S
C924        C925   1.419   1_556  A
C925        C926   1.417       .  A
C925        C928   1.451   1_554  S
C926        C930   1.450       .  S
C927        N934   1.157       .  T
C928        N935   1.157       .  T
C929        N933   1.156       .  T
C930        N936   1.157       .  T
C931        N940   1.157       .  T
C932        N938   1.155       .  T
C941        C942   1.414       .  A
C941        C946   1.424       .  A
C941        C959   1.448       .  S
C942        C947   1.508       .  S
C942        C943   1.406       .  A
C943        C944   1.409       .  A
C943        C948   1.454       .  S
C944        C945   1.419       .  A
C944        C960   1.444       .  S
C945        C946   1.419       .  A
C946        C949   1.448       .  S
C947        C950   1.413       .  A
C947        C954   1.413       .  A
C948        N965   1.157       .  T
C949        N967   1.157       .  T
C950        C951   1.413       .  A
C950        C955   1.451       .  S
C951        C952   1.412       .  A
C951        C957   1.446       .  S
C952        C953   1.416       .  A
C953        C954   1.418       .  A
C953        C956   1.450       .  S
C954        C958   1.449       .  S
C955        N962   1.157       .  T
C956        N963   1.157       .  T
C957        N961   1.155       .  T
C958        N964   1.157       .  T
C959        N968   1.157       .  T
C960        N966   1.154       .  T
C969        C970   1.415       .  A
C969        C974   1.411       .  A
C969        C987   1.452       .  S
C970        C975   1.509       .  S
C970        C971   1.416       .  A
C971        C972   1.417       .  A
C971        C976   1.449       .  S
C972        C973   1.411       .  A
C972        C988   1.449       .  S
C973        C974   1.412       .  A
C974        C977   1.451       .  S
C975        C978   1.413       .  A
C975        C982   1.413       .  A
C976        N993   1.157       .  T
C977        N995   1.157       .  T
C978        C979   1.414       .  A
C978        C983   1.451       .  S
C979        C980   1.417       .  A
C979        C985   1.451       .  S
C980        C981   1.418       .  A
C981        C982   1.416       .  A
C981        C984   1.450       .  S
C982        C986   1.450       .  S
C983        N990   1.157       .  T
C984        N991   1.157       .  T
C985        N989   1.157       .  T
C986        N992   1.157       .  T
C987        N996   1.157       .  T
C988        N994   1.157       .  T
C997        C998   1.409       .  A
C997       C1002   1.407       .  A
C997       C1015   1.451       .  S
C998       C1003   1.490   1_565  S
C998        C999   1.410       .  A
C999       C1000   1.410       .  A
C999       C1004   1.452       .  S
C1000      C1001   1.417       .  A
C1000      C1016   1.450       .  S
C1001      C1002   1.413       .  A
C1002      C1005   1.451       .  S
C1003      C1006   1.410       .  A
C1003      C1010   1.406       .  A
C1004      N1021   1.157   1_565  T
C1005      N1023   1.157       .  T
C1006      C1007   1.411       .  A
C1006      C1011   1.450       .  S
C1007      C1008   1.414       .  A
C1007      C1013   1.449       .  S
C1008      C1009   1.420       .  A
C1009      C1010   1.406       .  A
C1009      C1012   1.453       .  S
C1010      C1014   1.452   1_545  S
C1011      N1018   1.157       .  T
C1012      N1019   1.157       .  T
C1013      N1017   1.157       .  T
C1014      N1020   1.157       .  T
C1015      N1024   1.157       .  T
C1016      N1022   1.157       .  T
C1025      C1026   1.409       .  A
C1025      C1030   1.406       .  A
C1025      C1043   1.454   1_556  S
C1026      C1031   1.497       .  S
C1026      C1027   1.412       .  A
C1027      C1028   1.417       .  A
C1027      C1032   1.449       .  S
C1028      C1029   1.412       .  A
C1028      C1044   1.448       .  S
C1029      C1030   1.417       .  A
C1030      C1033   1.451       .  S
C1031      C1034   1.408   1_556  A
C1031      C1038   1.412       .  A
C1032      N1049   1.157       .  T
C1033      N1051   1.157       .  T
C1034      C1035   1.409       .  A
C1034      C1039   1.453   1_554  S
C1035      C1036   1.418       .  A
C1035      C1041   1.449       .  S
C1036      C1037   1.415       .  A
C1037      C1038   1.414   1_554  A
C1037      C1040   1.451       .  S
C1038      C1042   1.450       .  S
C1039      N1046   1.157       .  T
C1040      N1047   1.157       .  T
C1041      N1045   1.157       .  T
C1042      N1048   1.157       .  T
C1043      N1052   1.157       .  T
C1044      N1050   1.157       .  T
C1053      C1054   1.409   1_565  A
C1053      C1058   1.402       .  A
C1053      C1071   1.454       .  S
C1054      C1059   1.487   1_556  S
C1054      C1055   1.412       .  A
C1055      C1056   1.408       .  A
C1055      C1060   1.451   1_556  S
C1056      C1057   1.411       .  A
C1056      C1072   1.451       .  S
C1057      C1058   1.414   1_545  A
C1058      C1061   1.449       .  S
C1059      C1062   1.414       .  A
C1059      C1066   1.408       .  A
C1060      N1077   1.157       .  T
C1061      N1079   1.157       .  T
C1062      C1063   1.406       .  A
C1062      C1067   1.451   1_554  S
C1063      C1064   1.409       .  A
C1063      C1069   1.451       .  S
C1064      C1065   1.416       .  A
C1065      C1066   1.403       .  A
C1065      C1068   1.454       .  S
C1066      C1070   1.452       .  S
C1067      N1074   1.157       .  T
C1068      N1075   1.157       .  T
C1069      N1073   1.158       .  T
C1070      N1076   1.157       .  T
C1071      N1080   1.157   1_556  T
C1072      N1078   1.157       .  T
C1081      C1082   1.414       .  A
C1081      C1086   1.413       .  A
C1081      C1099   1.451       .  S
C1082      C1087   1.508       .  S
C1082      C1083   1.414       .  A
C1083      C1084   1.416       .  A
C1083      C1088   1.449       .  S
C1084      C1085   1.412       .  A
C1084      C1100   1.450       .  S
C1085      C1086   1.412       .  A
C1086      C1089   1.451       .  S
C1087      C1090   1.412       .  A
C1087      C1094   1.411       .  A
C1088      N1105   1.157       .  T
C1089      N1107   1.157   1_565  T
C1090      C1091   1.414       .  A
C1090      C1095   1.451       .  S
C1091      C1092   1.419       .  A
C1091      C1097   1.452       .  S
C1092      C1093   1.421       .  A
C1093      C1094   1.417       .  A
C1093      C1096   1.450       .  S
C1094      C1098   1.450       .  S
C1095      N1102   1.157       .  T
C1096      N1103   1.157       .  T
C1097      N1101   1.158       .  T
C1098      N1104   1.157       .  T
C1099      N1108   1.157       .  T
C1100      N1106   1.157       .  T
C1109      C1110   1.412       .  A
C1109      C1114   1.409       .  A
C1109      C1127   1.453       .  S
C1110      C1115   1.501       .  S
C1110      C1111   1.413       .  A
C1111      C1112   1.416       .  A
C1111      C1116   1.449       .  S
C1112      C1113   1.415       .  A
C1112      C1128   1.450       .  S
C1113      C1114   1.415       .  A
C1114      C1117   1.452       .  S
C1115      C1118   1.412       .  A
C1115      C1122   1.412       .  A
C1116      N1133   1.157       .  T
C1117      N1135   1.157       .  T
C1118      C1119   1.412       .  A
C1118      C1123   1.450       .  S
C1119      C1120   1.414       .  A
C1119      C1125   1.451       .  S
C1120      C1121   1.416       .  A
C1121      C1122   1.413       .  A
C1121      C1124   1.451       .  S
C1122      C1126   1.451       .  S
C1123      N1130   1.157       .  T
C1124      N1131   1.157       .  T
C1125      N1129   1.157       .  T
C1126      N1132   1.157       .  T
C1127      N1136   1.157       .  T
C1128      N1134   1.157       .  T
C1137      C1138   1.414       .  A
C1137      C1142   1.421       .  A
C1137      C1155   1.448       .  S
C1138      C1143   1.510       .  S
C1138      C1139   1.410       .  A
C1139      C1140   1.412       .  A
C1139      C1144   1.453       .  S
C1140      C1141   1.418       .  A
C1140      C1156   1.448       .  S
C1141      C1142   1.416       .  A
C1142      C1145   1.449       .  S
C1143      C1146   1.410       .  A
C1143      C1150   1.409       .  A
C1144      N1161   1.157       .  T
C1145      N1163   1.157       .  T
C1146      C1147   1.417       .  A
C1146      C1151   1.451       .  S
C1147      C1148   1.426       .  A
C1147      C1153   1.450       .  S
C1148      C1149   1.426       .  A
C1149      C1150   1.418       .  A
C1149      C1152   1.449       .  S
C1150      C1154   1.452       .  S
C1151      N1158   1.157       .  T
C1152      N1159   1.157   1_455  T
C1153      N1157   1.157       .  T
C1154      N1160   1.157       .  T
C1155      N1164   1.157       .  T
C1156      N1162   1.156       .  T
C1165      C1166   1.411       .  A
C1165      C1170   1.415   1_455  A
C1165      C1183   1.451   1_455  S
C1166      C1171   1.506       .  S
C1166      C1167   1.411       .  A
C1167      C1168   1.416       .  A
C1167      C1172   1.450       .  S
C1168      C1169   1.418       .  A
C1168      C1184   1.450       .  S
C1169      C1170   1.419   1_455  A
C1170      C1173   1.451       .  S
C1171      C1174   1.411       .  A
C1171      C1178   1.410       .  A
C1172      N1189   1.157       .  T
C1173      N1191   1.157       .  T
C1174      C1175   1.418       .  A
C1174      C1179   1.449       .  S
C1175      C1176   1.418       .  A
C1175      C1181   1.451       .  S
C1176      C1177   1.420       .  A
C1177      C1178   1.412       .  A
C1177      C1180   1.451       .  S
C1178      C1182   1.452       .  S
C1179      N1186   1.157       .  T
C1180      N1187   1.157       .  T
C1181      N1185   1.158       .  T
C1182      N1188   1.157       .  T
C1183      N1192   1.157       .  T
C1184      N1190   1.157       .  T
C1193      C1194   1.411       .  A
C1193      C1198   1.414       .  A
C1193      C1211   1.451       .  S
C1194      C1199   1.503       .  S
C1194      C1195   1.411       .  A
C1195      C1196   1.410       .  A
C1195      C1200   1.451       .  S
C1196      C1197   1.422       .  A
C1196      C1212   1.453       .  S
C1197      C1198   1.421       .  A
C1198      C1201   1.450   1_565  S
C1199      C1202   1.413       .  A
C1199      C1206   1.412       .  A
C1200      N1217   1.157       .  T
C1201      N1219   1.157       .  T
C1202      C1203   1.414       .  A
C1202      C1207   1.450       .  S
C1203      C1204   1.415       .  A
C1203      C1209   1.450       .  S
C1204      C1205   1.418       .  A
C1205      C1206   1.410       .  A
C1205      C1208   1.451       .  S
C1206      C1210   1.452       .  S
C1207      N1214   1.157       .  T
C1208      N1215   1.158       .  T
C1209      N1213   1.157       .  T
C1210      N1216   1.157       .  T
C1211      N1220   1.157       .  T
C1212      N1218   1.157       .  T
C1221      C1222   1.412       .  A
C1221      C1226   1.415       .  A
C1221      C1239   1.449       .  S
C1222      C1227   1.502       .  S
C1222      C1223   1.412       .  A
C1223      C1224   1.409       .  A
C1223      C1228   1.452       .  S
C1224      C1225   1.417       .  A
C1224      C1240   1.453       .  S
C1225      C1226   1.414       .  A
C1226      C1229   1.450       .  S
C1227      C1230   1.413       .  A
C1227      C1234   1.412       .  A
C1228      N1245   1.157       .  T
C1229      N1247   1.157       .  T
C1230      C1231   1.412       .  A
C1230      C1235   1.451       .  S
C1231      C1232   1.412       .  A
C1231      C1237   1.451   1_545  S
C1232      C1233   1.414       .  A
C1233      C1234   1.413       .  A
C1233      C1236   1.450       .  S
C1234      C1238   1.450       .  S
C1235      N1242   1.157       .  T
C1236      N1243   1.157       .  T
C1237      N1241   1.157       .  T
C1238      N1244   1.157       .  T
C1239      N1248   1.157       .  T
C1240      N1246   1.157       .  T
C1249      C1250   1.413       .  A
C1249      C1254   1.418       .  A
C1249      C1267   1.448       .  S
C1250      C1255   1.499       .  S
C1250      C1251   1.408       .  A
C1251      C1252   1.405       .  A
C1251      C1256   1.453   1_556  S
C1252      C1253   1.417       .  A
C1252      C1268   1.450       .  S
C1253      C1254   1.412       .  A
C1254      C1257   1.449       .  S
C1255      C1258   1.412       .  A
C1255      C1262   1.409       .  A
C1256      N1273   1.157       .  T
C1257      N1275   1.157       .  T
C1258      C1259   1.414   1_556  A
C1258      C1263   1.450       .  S
C1259      C1260   1.415       .  A
C1259      C1265   1.451       .  S
C1260      C1261   1.417       .  A
C1261      C1262   1.411   1_554  A
C1261      C1264   1.449       .  S
C1262      C1266   1.452       .  S
C1263      N1270   1.157       .  T
C1264      N1271   1.157       .  T
C1265      N1269   1.157   1_455  T
C1266      N1272   1.157       .  T
C1267      N1276   1.157       .  T
C1268      N1274   1.156       .  T
C1277      C1278   1.410       .  A
C1277      C1282   1.414       .  A
C1277      C1295   1.452       .  S
C1278      C1283   1.506       .  S
C1278      C1279   1.410       .  A
C1279      C1280   1.417       .  A
C1279      C1284   1.450       .  S
C1280      C1281   1.421       .  A
C1280      C1296   1.450       .  S
C1281      C1282   1.423       .  A
C1282      C1285   1.451       .  S
C1283      C1286   1.413       .  A
C1283      C1290   1.411       .  A
C1284      N1301   1.157   1_655  T
C1285      N1303   1.158       .  T
C1286      C1287   1.418       .  A
C1286      C1291   1.449       .  S
C1287      C1288   1.413   1_655  A
C1287      C1293   1.449       .  S
C1288      C1289   1.416       .  A
C1289      C1290   1.412   1_455  A
C1289      C1292   1.451       .  S
C1290      C1294   1.452       .  S
C1291      N1298   1.157       .  T
C1292      N1299   1.157       .  T
C1293      N1297   1.157       .  T
C1294      N1300   1.158       .  T
C1295      N1304   1.157       .  T
C1296      N1302   1.157       .  T
C1305      C1306   1.413       .  A
C1305      C1310   1.413       .  A
C1305      C1323   1.450       .  S
C1306      C1311   1.506       .  S
C1306      C1307   1.414   1_565  A
C1307      C1308   1.415       .  A
C1307      C1312   1.451       .  S
C1308      C1309   1.414       .  A
C1308      C1324   1.451       .  S
C1309      C1310   1.414   1_545  A
C1310      C1313   1.451       .  S
C1311      C1314   1.412       .  A
C1311      C1318   1.412       .  A
C1312      N1329   1.157       .  T
C1313      N1331   1.157       .  T
C1314      C1315   1.413       .  A
C1314      C1319   1.452       .  S
C1315      C1316   1.418       .  A
C1315      C1321   1.452       .  S
C1316      C1317   1.416       .  A
C1317      C1318   1.416       .  A
C1317      C1320   1.450       .  S
C1318      C1322   1.450       .  S
C1319      N1326   1.157       .  T
C1320      N1327   1.157       .  T
C1321      N1325   1.157       .  T
C1322      N1328   1.157       .  T
C1323      N1332   1.157       .  T
C1324      N1330   1.157       .  T
C1333      C1334   1.410       .  A
C1333      C1338   1.409       .  A
C1333      C1351   1.451       .  S
C1334      C1339   1.500       .  S
C1334      C1335   1.414       .  A
C1335      C1336   1.415       .  A
C1335      C1340   1.449       .  S
C1336      C1337   1.412       .  A
C1336      C1352   1.450       .  S
C1337      C1338   1.416       .  A
C1338      C1341   1.453       .  S
C1339      C1342   1.409       .  A
C1339      C1346   1.413       .  A
C1340      N1357   1.157       .  T
C1341      N1359   1.157       .  T
C1342      C1343   1.409       .  A
C1342      C1347   1.452       .  S
C1343      C1344   1.418       .  A
C1343      C1349   1.453       .  S
C1344      C1345   1.413       .  A
C1345      C1346   1.416       .  A
C1345      C1348   1.449       .  S
C1346      C1350   1.450       .  S
C1347      N1354   1.157       .  T
C1348      N1355   1.157       .  T
C1349      N1353   1.157       .  T
C1350      N1356   1.157       .  T
C1351      N1360   1.157       .  T
C1352      N1358   1.157       .  T
C1361      C1362   1.410       .  A
C1361      C1366   1.413   1_554  A
C1361      C1379   1.453       .  S
C1362      C1367   1.506       .  S
C1362      C1363   1.408       .  A
C1363      C1364   1.417   1_554  A
C1363      C1368   1.450       .  S
C1364      C1365   1.426       .  A
C1364      C1380   1.450   1_565  S
C1365      C1366   1.428       .  A
C1366      C1369   1.452       .  S
C1367      C1370   1.416       .  A
C1367      C1374   1.409       .  A
C1368      N1385   1.157   1_565  T
C1369      N1387   1.158       .  T
C1370      C1371   1.421       .  A
C1370      C1375   1.448       .  S
C1371      C1372   1.413       .  A
C1371      C1377   1.449       .  S
C1372      C1373   1.414       .  A
C1373      C1374   1.406       .  A
C1373      C1376   1.444       .  S
C1374      C1378   1.454       .  S
C1375      N1382   1.157       .  T
C1376      N1383   1.154       .  T
C1377      N1381   1.157       .  T
C1378      N1384   1.157   1_554  T
C1379      N1388   1.157       .  T
C1380      N1386   1.157       .  T
C1389      C1390   1.413       .  A
C1389      C1394   1.418   1_655  A
C1389      C1407   1.450   1_655  S
C1390      C1395   1.507       .  S
C1390      C1391   1.412       .  A
C1391      C1392   1.409       .  A
C1391      C1396   1.454       .  S
C1392      C1393   1.422       .  A
C1392      C1408   1.452       .  S
C1393      C1394   1.420   1_655  A
C1394      C1397   1.450       .  S
C1395      C1398   1.413       .  A
C1395      C1402   1.415       .  A
C1396      N1413   1.157       .  T
C1397      N1415   1.157       .  T
C1398      C1399   1.414       .  A
C1398      C1403   1.450       .  S
C1399      C1400   1.414       .  A
C1399      C1405   1.451       .  S
C1400      C1401   1.411       .  A
C1401      C1402   1.413       .  A
C1401      C1404   1.450       .  S
C1402      C1406   1.450       .  S
C1403      N1410   1.157   1_655  T
C1404      N1411   1.157       .  T
C1405      N1409   1.157   1_565  T
C1406      N1412   1.157       .  T
C1407      N1416   1.157       .  T
C1408      N1414   1.157       .  T
C1417      C1418   1.410       .  A
C1417      C1422   1.417       .  A
C1417      C1435   1.451       .  S
C1418      C1423   1.503       .  S
C1418      C1419   1.404       .  A
C1419      C1420   1.413       .  A
C1419      C1424   1.452       .  S
C1420      C1421   1.423       .  A
C1420      C1436   1.442       .  S
C1421      C1422   1.425       .  A
C1422      C1425   1.451       .  S
C1423      C1426   1.414       .  A
C1423      C1430   1.409       .  A
C1424      N1441   1.157       .  T
C1425      N1443   1.158   1_655  T
C1426      C1427   1.419       .  A
C1426      C1431   1.448       .  S
C1427      C1428   1.412       .  A
C1427      C1433   1.449       .  S
C1428      C1429   1.418       .  A
C1429      C1430   1.408       .  A
C1429      C1432   1.451       .  S
C1430      C1434   1.453       .  S
C1431      N1438   1.157       .  T
C1432      N1439   1.157       .  T
C1433      N1437   1.157       .  T
C1434      N1440   1.157       .  T
C1435      N1444   1.157       .  T
C1436      N1442   1.154       .  T
C1445      C1446   1.403       .  A
C1445      C1450   1.400       .  A
C1445      C1463   1.454       .  S
C1446      C1451   1.479   1_655  S
C1446      C1447   1.409   1_545  A
C1447      C1448   1.406       .  A
C1447      C1452   1.451       .  S
C1448      C1449   1.411   1_565  A
C1448      C1464   1.451       .  S
C1449      C1450   1.416       .  A
C1450      C1453   1.448       .  S
C1451      C1454   1.412       .  A
C1451      C1458   1.404       .  A
C1452      N1469   1.157       .  T
C1453      N1471   1.157       .  T
C1454      C1455   1.405       .  A
C1454      C1459   1.452       .  S
C1455      C1456   1.407       .  A
C1455      C1461   1.448       .  S
C1456      C1457   1.416       .  A
C1457      C1458   1.401       .  A
C1457      C1460   1.452   1_545  S
C1458      C1462   1.452   1_455  S
C1459      N1466   1.157       .  T
C1460      N1467   1.157       .  T
C1461      N1465   1.157       .  T
C1462      N1468   1.157       .  T
C1463      N1472   1.157   1_655  T
C1464      N1470   1.157       .  T
C1473      C1474   1.407       .  A
C1473      C1478   1.417       .  A
C1473      C1491   1.451       .  S
C1474      C1479   1.499       .  S
C1474      C1475   1.406       .  A
C1475      C1476   1.411       .  A
C1475      C1480   1.454       .  S
C1476      C1477   1.430       .  A
C1476      C1492   1.452       .  S
C1477      C1478   1.426       .  A
C1478      C1481   1.450       .  S
C1479      C1482   1.407       .  A
C1479      C1486   1.413       .  A
C1480      N1497   1.157       .  T
C1481      N1499   1.157   1_545  T
C1482      C1483   1.405       .  A
C1482      C1487   1.454       .  S
C1483      C1484   1.415       .  A
C1483      C1489   1.448       .  S
C1484      C1485   1.413       .  A
C1485      C1486   1.419       .  A
C1485      C1488   1.449       .  S
C1486      C1490   1.448       .  S
C1487      N1494   1.157       .  T
C1488      N1495   1.157       .  T
C1489      N1493   1.156       .  T
C1490      N1496   1.157       .  T
C1491      N1500   1.157       .  T
C1492      N1498   1.158       .  T
C1501      C1502   1.414       .  A
C1501      C1506   1.416       .  A
C1501      C1519   1.450       .  S
C1502      C1507   1.504       .  S
C1502      C1503   1.410       .  A
C1503      C1504   1.410       .  A
C1503      C1508   1.453       .  S
C1504      C1505   1.422       .  A
C1504      C1520   1.452       .  S
C1505      C1506   1.416       .  A
C1506      C1509   1.450   1_565  S
C1507      C1510   1.408       .  A
C1507      C1514   1.413       .  A
C1508      N1525   1.157       .  T
C1509      N1527   1.157       .  T
C1510      C1511   1.410       .  A
C1510      C1515   1.454       .  S
C1511      C1512   1.429       .  A
C1511      C1517   1.454       .  S
C1512      C1513   1.419       .  A
C1513      C1514   1.417       .  A
C1513      C1516   1.450       .  S
C1514      C1518   1.450       .  S
C1515      N1522   1.157   1_565  T
C1516      N1523   1.157       .  T
C1517      N1521   1.158       .  T
C1518      N1524   1.157       .  T
C1519      N1528   1.157       .  T
C1520      N1526   1.157       .  T
C1529      C1530   1.410       .  A
C1529      C1534   1.411   1_556  A
C1529      C1547   1.450       .  S
C1530      C1535   1.492       .  S
C1530      C1531   1.408   1_556  A
C1531      C1532   1.409       .  A
C1531      C1536   1.453   1_554  S
C1532      C1533   1.417       .  A
C1532      C1548   1.449       .  S
C1533      C1534   1.414       .  A
C1534      C1537   1.451       .  S
C1535      C1538   1.412       .  A
C1535      C1542   1.407       .  A
C1536      N1553   1.157       .  T
C1537      N1555   1.157   1_545  T
C1538      C1539   1.416       .  A
C1538      C1543   1.449       .  S
C1539      C1540   1.413       .  A
C1539      C1545   1.448       .  S
C1540      C1541   1.416       .  A
C1541      C1542   1.403       .  A
C1541      C1544   1.450       .  S
C1542      C1546   1.454   1_556  S
C1543      N1550   1.157       .  T
C1544      N1551   1.156       .  T
C1545      N1549   1.157       .  T
C1546      N1552   1.157       .  T
C1547      N1556   1.157       .  T
C1548      N1554   1.157       .  T
C1557      C1558   1.405   1_656  A
C1557      C1562   1.401       .  A
C1557      C1575   1.455       .  S
C1558      C1563   1.483       .  S
C1558      C1559   1.410   1_554  A
C1559      C1560   1.410       .  A
C1559      C1564   1.450   1_556  S
C1560      C1561   1.413   1_455  A
C1560      C1576   1.451       .  S
C1561      C1562   1.418       .  A
C1562      C1565   1.450       .  S
C1563      C1566   1.413   1_545  A
C1563      C1570   1.407       .  A
C1564      N1581   1.157       .  T
C1565      N1583   1.157       .  T
C1566      C1567   1.405       .  A
C1566      C1571   1.451   1_554  S
C1567      C1568   1.408       .  A
C1567      C1573   1.450       .  S
C1568      C1569   1.415       .  A
C1569      C1570   1.404   1_565  A
C1569      C1572   1.453       .  S
C1570      C1574   1.451       .  S
C1571      N1578   1.157       .  T
C1572      N1579   1.157       .  T
C1573      N1577   1.158   1_554  T
C1574      N1580   1.157       .  T
C1575      N1584   1.157   1_545  T
C1576      N1582   1.157       .  T
C1585      C1586   1.412       .  A
C1585      C1590   1.417       .  A
C1585      C1603   1.450       .  S
C1586      C1591   1.503       .  S
C1586      C1587   1.406       .  A
C1587      C1588   1.411       .  A
C1587      C1592   1.452       .  S
C1588      C1589   1.426       .  A
C1588      C1604   1.453       .  S
C1589      C1590   1.418       .  A
C1590      C1593   1.450       .  S
C1591      C1594   1.409       .  A
C1591      C1598   1.412       .  A
C1592      N1609   1.157       .  T
C1593      N1611   1.157       .  T
C1594      C1595   1.410       .  A
C1594      C1599   1.452       .  S
C1595      C1596   1.421       .  A
C1595      C1601   1.452       .  S
C1596      C1597   1.418       .  A
C1597      C1598   1.418       .  A
C1597      C1600   1.450       .  S
C1598      C1602   1.449       .  S
C1599      N1606   1.157       .  T
C1600      N1607   1.157       .  T
C1601      N1605   1.157       .  T
C1602      N1608   1.157       .  T
C1603      N1612   1.157       .  T
C1604      N1610   1.158       .  T
C1613      C1614   1.413       .  A
C1613      C1618   1.419       .  A
C1613      C1631   1.448       .  S
C1614      C1619   1.506       .  S
C1614      C1615   1.408       .  A
C1615      C1616   1.410       .  A
C1615      C1620   1.453   1_554  S
C1616      C1617   1.418       .  A
C1616      C1632   1.447       .  S
C1617      C1618   1.415       .  A
C1618      C1621   1.448       .  S
C1619      C1622   1.408   1_554  A
C1619      C1626   1.408       .  A
C1620      N1637   1.157       .  T
C1621      N1639   1.157       .  T
C1622      C1623   1.415       .  A
C1622      C1627   1.453   1_556  S
C1623      C1624   1.430       .  A
C1623      C1629   1.451       .  S
C1624      C1625   1.427       .  A
C1625      C1626   1.418   1_556  A
C1625      C1628   1.451       .  S
C1626      C1630   1.451       .  S
C1627      N1634   1.157       .  T
C1628      N1635   1.158   1_655  T
C1629      N1633   1.157       .  T
C1630      N1636   1.157       .  T
C1631      N1640   1.157       .  T
C1632      N1638   1.155       .  T
C1641      C1642   1.408       .  A
C1641      C1646   1.416       .  A
C1641      C1659   1.450   1_455  S
C1642      C1647   1.499       .  S
C1642      C1643   1.408       .  A
C1643      C1644   1.411       .  A
C1643      C1648   1.453       .  S
C1644      C1645   1.425       .  A
C1644      C1660   1.452       .  S
C1645      C1646   1.423       .  A
C1646      C1649   1.451   1_455  S
C1647      C1650   1.409       .  A
C1647      C1654   1.412       .  A
C1648      N1665   1.157       .  T
C1649      N1667   1.158       .  T
C1650      C1651   1.408       .  A
C1650      C1655   1.453       .  S
C1651      C1652   1.415       .  A
C1651      C1657   1.449       .  S
C1652      C1653   1.412       .  A
C1653      C1654   1.416       .  A
C1653      C1656   1.448       .  S
C1654      C1658   1.448       .  S
C1655      N1662   1.157   1_455  T
C1656      N1663   1.157       .  T
C1657      N1661   1.157       .  T
C1658      N1664   1.157       .  T
C1659      N1668   1.157       .  T
C1660      N1666   1.158       .  T
C1669      C1670   1.412       .  A
C1669      C1674   1.412       .  A
C1669      C1687   1.452       .  S
C1670      C1675   1.508       .  S
C1670      C1671   1.414       .  A
C1671      C1672   1.419       .  A
C1671      C1676   1.449       .  S
C1672      C1673   1.414       .  A
C1672      C1688   1.449       .  S
C1673      C1674   1.416       .  A
C1674      C1677   1.451       .  S
C1675      C1678   1.414       .  A
C1675      C1682   1.413       .  A
C1676      N1693   1.157       .  T
C1677      N1695   1.157       .  T
C1678      C1679   1.416       .  A
C1678      C1683   1.449       .  S
C1679      C1680   1.413       .  A
C1679      C1685   1.450       .  S
C1680      C1681   1.415       .  A
C1681      C1682   1.415       .  A
C1681      C1684   1.451       .  S
C1682      C1686   1.451       .  S
C1683      N1690   1.157       .  T
C1684      N1691   1.157       .  T
C1685      N1689   1.157       .  T
C1686      N1692   1.157   1_545  T
C1687      N1696   1.157       .  T
C1688      N1694   1.157   1_545  T
