geometry optimzed in LAMMPS
_audit_creation_date              2020-12-01 
_audit_creation_method            'lammps2cif' 
_symmetry_space_group_name_H-M    'P1' 
_symmetry_Int_Tables_number       1 
_symmetry_cell_setting            triclinic 
loop_ 
_symmetry_equiv_pos_as_xyz 
  x,y,z 
_cell_length_a                    45.27622509 
_cell_length_b                    45.09680358204618 
_cell_length_c                    46.457429980014616 
_cell_angle_alpha                 90.1518419811601 
_cell_angle_beta                  89.43004536544234 
_cell_angle_gamma                 121.28978919557632 
loop_ 
_atom_site_label 
_atom_site_type_symbol 
_atom_site_fract_x 
_atom_site_fract_y 
_atom_site_fract_z 
_atom_site_charge 
O1          O  0.41121611  0.13531463  0.16377343    -0.81000
C2          C  0.45823278  0.11397573  0.06197319     0.98400
O3          O  0.46854853  0.12308260  0.08736999    -0.70100
O4          O  0.47227610  0.14875386  0.13921501    -0.73700
Al5        Al  0.44028221  0.10666945  0.12019870     1.49000
C6          C  0.47766093  0.17914420  0.13888541     0.93600
O7          O  0.40594357  0.17651331  0.09307731    -0.79900
O8          O  0.34904109  0.10398736  0.08662096    -0.73500
Al9        Al  0.40927473  0.15288280  0.12661473     1.90100
O10         O  0.40942259  0.14736983  0.05655840    -0.72500
O11         O  0.36730560  0.05739977  0.08987374    -0.72400
O12         O  0.42654797  0.10015819  0.05555554    -0.78000
O13         O  0.41444214  0.06077724  0.10495450    -0.76200
O14         O  0.41326342  0.12132433  0.10699604    -1.12400
O15         O  0.41394719  0.08888122  0.15449285    -0.71600
C16         C  0.40881768  0.10727803  0.17189209     0.99200
C17         C  0.41001978  0.17374681  0.06635126     0.95600
Al18       Al  0.38989808  0.10347997  0.07462554     1.55600
O19         O  0.45744395  0.18580546  0.12607637    -0.76200
C20         C  0.38231636  0.04323395  0.10081072     0.99700
C21         C  0.33986833  0.10915968  0.11100747     0.94600
O22         O  0.36149285  0.12402696  0.13059324    -0.81500
O23         O  0.28023419  0.37790228  0.34277545    -0.81000
C24         C  0.35121769  0.39928968  0.44185299     0.98400
O25         O  0.34901357  0.38665721  0.41715796    -0.70100
O26         O  0.32406856  0.36033266  0.36635938    -0.73700
Al27       Al  0.34054784  0.40389121  0.38373006     1.49000
C28         C  0.29660976  0.33135706  0.36859084     0.93600
O29         O  0.23570475  0.34544462  0.41634634    -0.79900
O30         O  0.26144584  0.42433716  0.41537925    -0.73500
Al31       Al  0.26134868  0.36408573  0.38099283     1.90100
O32         O  0.27015667  0.37968051  0.45025688    -0.72500
O33         O  0.33028938  0.46353832  0.40909647    -0.72400
O34         O  0.33816416  0.41798524  0.44736788    -0.78000
O35         O  0.36861974  0.45052112  0.39664284    -0.76200
O36         O  0.30022584  0.39561476  0.39787439    -1.12400
O37         O  0.33395603  0.42132317  0.34922444    -0.71600
C38         C  0.30795368  0.40415162  0.33336517     0.99200
C39         C  0.24312502  0.35219806  0.44272401     0.95600
Al40       Al  0.30016274  0.41972653  0.42820482     1.55600
O41         O  0.27149386  0.32820385  0.38287744    -0.76200
C42         C  0.35958126  0.47245884  0.39852544     0.99700
C43         C  0.24336626  0.41460112  0.39267284     0.94600
O44         O  0.24541610  0.39433476  0.37551792    -0.81500
O45         O  0.38528962  0.28038972  0.32984846    -0.81000
C46         C  0.38902322  0.35577508  0.23156881     0.98400
O47         O  0.40109899  0.36666690  0.25600031    -0.70100
O48         O  0.34879807  0.33210964  0.29243248    -0.73700
Al49       Al  0.39552651  0.34353760  0.29098050     1.49000
C50         C  0.32591270  0.30718808  0.30742792     0.93600
O51         O  0.32253752  0.24212515  0.26898836    -0.79900
O52         O  0.41643181  0.27080436  0.25503116    -0.73500
Al53       Al  0.35572869  0.26414227  0.29797190     1.90100
O54         O  0.35552230  0.25899531  0.23017769    -0.72500
O55         O  0.44577945  0.33807634  0.24826747    -0.72400
O56         O  0.38251489  0.32627717  0.22348563    -0.78000
O57         O  0.44228171  0.35748032  0.29099677    -0.76200
O58         O  0.38326166  0.30188387  0.27680180    -1.12400
O59         O  0.39443615  0.33288006  0.33033823    -0.71600
C60         C  0.39457007  0.30835394  0.34271490     0.99200
C61         C  0.32651281  0.23972697  0.24244465     0.95600
Al62       Al  0.39873032  0.29886768  0.24199776     1.55600
O63         O  0.32793771  0.28093952  0.31300887    -0.76200
C64         C  0.46013566  0.35563405  0.27082777     0.99700
C65         C  0.40375946  0.24670995  0.27341869     0.94600
O66         O  0.37777487  0.24020441  0.28823178    -0.81500
O67         O  0.09656815  0.38284552  0.41237687    -0.81000
C68         C  0.04259222  0.40217703  0.31452692     0.98400
O69         O  0.03501452  0.39473520  0.34073797    -0.70100
O70         O  0.03522207  0.37026415  0.39220658    -0.73700
Al71       Al  0.06602995  0.41180664  0.37138929     1.49000
C72         C  0.02917538  0.33960549  0.39176178     0.93600
O73         O  0.09777723  0.34029776  0.34095574    -0.79900
O74         O  0.15527710  0.41414439  0.33252134    -0.73500
Al75       Al  0.09644467  0.36476433  0.37489970     1.90100
O76         O  0.09282003  0.36891432  0.30513103    -0.72500
O77         O  0.13584473  0.45988306  0.33562478    -0.72400
O78         O  0.07352941  0.41459119  0.30539425    -0.78000
O79         O  0.09080656  0.45778049  0.35504412    -0.76200
O80         O  0.09163632  0.39630534  0.35597889    -1.12400
O81         O  0.09503478  0.43003844  0.40367722    -0.71600
C82         C  0.09970680  0.41113568  0.42069035     0.99200
C83         C  0.09246267  0.34263301  0.31454742     0.95600
Al84       Al  0.11269222  0.41312137  0.32229096     1.55600
O85         O  0.04793446  0.33215468  0.37701634    -0.76200
C86         C  0.12197251  0.47511458  0.34692855     0.99700
C87         C  0.16576003  0.40926111  0.35635602     0.94600
O88         O  0.14472447  0.39343009  0.37649061    -0.81500
O89         O  0.23822560  0.12875959  0.09295252    -0.81000
C90         C  0.15427115  0.11761007  0.18734277     0.98400
O91         O  0.14425614  0.10533146  0.16261810    -0.70100
O92         O  0.17679884  0.15731367  0.12651664    -0.73700
Al93       Al  0.16912496  0.11194466  0.12785117     1.49000
C94         C  0.20039390  0.18079321  0.11114037     0.93600
O95         O  0.26280564  0.19030232  0.15520039    -0.79900
O96         O  0.24152176  0.09451260  0.16341959    -0.73500
Al97       Al  0.24820446  0.15789381  0.12494944     1.90100
O98         O  0.25145585  0.15388781  0.19099200    -0.72500
O99         O  0.17413067  0.06254836  0.17105161    -0.72400
O100        O  0.18349314  0.12460688  0.19617160    -0.78000
O101        O  0.15764002  0.06571658  0.12744835    -0.76200
O102        O  0.20995627  0.12664582  0.14368114    -1.12400
O103        O  0.18424560  0.11465402  0.08904591    -0.71600
C104        C  0.21130733  0.11748014  0.07835976     0.99200
C105        C  0.26741923  0.18452770  0.18077988     0.95600
Al106      Al  0.21237452  0.11021899  0.17785245     1.55600
O107        O  0.22855597  0.18196783  0.10691562    -0.76200
C108        C  0.15779617  0.04787148  0.14817750     0.99700
C109        C  0.26841742  0.11195335  0.14826363     0.94600
O110        O  0.27593100  0.14064533  0.13749820    -0.81500
O111        O  0.21596172  0.09695439  0.49218605    -0.81000
C112        C  0.14667657  0.05429914  0.39173526     0.98400
O113        O  0.14344087  0.04399939  0.41738441    -0.70100
O114        O  0.16546656  0.03817195  0.46831021    -0.73700
Al115      Al  0.15736549  0.07168843  0.45021595     1.49000
C116        C  0.18977739  0.03216004  0.46667816     0.93600
O117        O  0.26257826  0.10559220  0.42114275    -0.79900
O118        O  0.24985916  0.16421146  0.41763246    -0.73500
Al119      Al  0.23522912  0.10047719  0.45476622     1.90100
O120        O  0.23115521  0.10479005  0.38525921    -0.72500
O121        O  0.18444896  0.14533069  0.41985290    -0.72400
O122        O  0.16627107  0.08619265  0.38504936    -0.78000
O123        O  0.13872894  0.09891260  0.43653959    -0.76200
O124        O  0.20008766  0.09839918  0.43620634    -1.12400
O125        O  0.16834768  0.09755023  0.48441903    -0.71600
C126        C  0.18925197  0.09844336  0.99974511     0.99200
C127        C  0.25646169  0.10355128  0.39450561     0.95600
Al128      Al  0.20718734  0.12315945  0.40438567     1.55600
O129        O  0.21684157  0.05203050  0.45254486    -0.76200
C130        C  0.15476747  0.13099105  0.43104692     0.99700
C131        C  0.26396444  0.17127761  0.44220684     0.97000
O132        O  0.25661978  0.14779075  0.46019782    -0.81500
O133        O  0.11792611  0.24909806  0.18338985    -0.81000
C134        C  0.04679748  0.15710544  0.27493594     0.98400
O135        O  0.04851555  0.14803650  0.24956468    -0.70100
O136        O  0.02822315  0.18098931  0.21679357    -0.73700
Al137      Al  0.06672568  0.17538912  0.21537632     1.49000
C138        C  0.02816035  0.20514887  0.20341574     0.93600
O139        O  0.08251398  0.26485723  0.25268812    -0.79900
O140        O  0.15950026  0.24663664  0.24872574    -0.73500
Al141      Al  0.09967142  0.25466032  0.21859227     1.90100
O142        O  0.11243649  0.25350226  0.28294836    -0.72500
O143        O  0.12240369  0.17875297  0.25555553    -0.72400
O144        O  0.07098762  0.18557339  0.28479726    -0.78000
O145        O  0.10208025  0.16563000  0.21181792    -0.76200
O146        O  0.09364179  0.21530596  0.23319252    -1.12400
O147        O  0.07915139  0.19399523  0.17701844    -0.71600
C148        C  0.10280999  0.22294553  0.16723942     0.99200
C149        C  0.09571738  0.26810658  0.27728870     0.95600
Al150      Al  0.11464733  0.21598989  0.26561922     1.55600
O151        O  0.05500830  0.23485892  0.20171402    -0.76200
C152        C  0.12060490  0.16484300  0.23145699     0.99700
C153        C  0.16790396  0.27454190  0.23562241     0.94600
O154        O  0.14587153  0.28290143  0.23068721    -0.81500
O155        O  0.25940152  0.39317134  0.24030693    -0.81000
C156        C  0.34879995  0.46270480  0.14676230     0.98400
O157        O  0.35801886  0.46353242  0.17241138    -0.70100
O158        O  0.32672464  0.48401897  0.20802143    -0.73700
Al159      Al  0.33222390  0.44499993  0.20719616     1.49000
C160        C  0.30307701  0.48394576  0.22258018     0.93600
O161        O  0.24243370  0.42992704  0.17349559    -0.79900
O162        O  0.25925005  0.35163664  0.17480036    -0.73500
Al163      Al  0.25303115  0.41202689  0.20650695     1.90100
O164        O  0.25279011  0.39991684  0.14178728    -0.72500
O165        O  0.32578268  0.38684291  0.16635748    -0.72400
O166        O  0.31999084  0.43836603  0.13798633    -0.78000
O167        O  0.34253932  0.40968472  0.20904757    -0.76200
O168        O  0.29179461  0.41790979  0.19039920    -1.12400
O169        O  0.31473017  0.43172817  0.24545363    -0.71600
C170        C  0.28615179  0.40774004  0.25547306     0.99200
C171        C  0.23948196  0.41776161  0.14835060     0.95600
Al172      Al  0.28959912  0.39599705  0.15776825     1.55600
O173        O  0.27356039  0.45684845  0.22446981    -0.76200
C174        C  0.34121667  0.38959009  0.18957048     0.99700
C175        C  0.23167585  0.34316560  0.18824473     0.94600
O176        O  0.22372812  0.36543827  0.19421183    -0.81500
O177        O  0.13044368  0.23119694  0.07755667    -0.81000
C178        C  0.10743204  0.16150981  0.47771408     0.98400
O179        O  0.11614513  0.16039927  0.50315003    -0.70100
O180        O  0.14123961  0.18321760  0.05133525    -0.73700
Al181      Al  0.09846499  0.17185900  0.03444717     1.49000
C182        C  0.17175149  0.20893143  0.04958992     0.93600
O183        O  0.16765562  0.27944377  0.00587743    -0.79900
O184        O  0.09707020  0.26108462  0.50322509    -0.73500
Al185      Al  0.14560575  0.25097117  0.03963250     1.90100
O186        O  0.14037844  0.24628854  0.47180185    -0.72500
O187        O  0.05174974  0.19439605  0.50564089    -0.72400
O188        O  0.09452552  0.17979873  0.47114964    -0.78000
O189        O  0.05190717  0.15045829  0.02115778    -0.76200
O190        O  0.11327035  0.21411861  0.02065738    -1.12400
O191        O  0.08290921  0.18118892  0.06945090    -0.71600
C192        C  0.10242861  0.20516410  0.08647803     0.99200
C193        C  0.16643664  0.27349744  0.48084603     0.95600
Al194      Al  0.09731902  0.21989508  0.49048130     1.55600
O195        O  0.17822976  0.23651609  0.03720224    -0.76200
C196        C  0.03468956  0.16421366  0.01473549     0.99700
C197        C  0.10054714  0.27447993  0.02647607     0.94600
O198        O  0.11666818  0.26856997  0.04514725    -0.81500
O199        O  0.12296071  0.39391554  0.01685818    -0.81000
C200        C  0.10368839  0.46326914  0.10905341     0.98400
O201        O  0.09369833  0.46252152  0.08366133    -0.70100
O202        O  0.14669320  0.48348730  0.04911945    -0.73700
Al203      Al  0.10128882  0.44436082  0.04912933     1.49000
C204        C  0.17025148  0.48393131  0.03426746     0.93600
O205        O  0.17571159  0.43111679  0.08474025    -0.79900
O206        O  0.07854796  0.35117051  0.08220948    -0.73500
Al207      Al  0.14762229  0.41289032  0.05119653     1.90100
O208        O  0.13371794  0.39963801  0.11567782    -0.72500
O209        O  0.04757524  0.38681803  0.09003578    -0.72400
O210        O  0.10698413  0.43889268  0.11853707    -0.78000
O211        O  0.05453929  0.40888318  0.04685610    -0.76200
O212        O  0.11393340  0.41769711  0.06644157    -1.12400
O213        O  0.10641928  0.43154502  0.01080604    -0.71600
C214        C  0.11204954  0.40870880  0.00096341     0.99200
C215        C  0.16559696  0.41811712  0.10966125     0.95600
Al216      Al  0.09325718  0.39583681  0.09909542     1.55600
O217        O  0.17304545  0.45760496  0.03305727    -0.76200
C218        C  0.03497753  0.38977659  0.06683567     0.99700
C219        C  0.09847195  0.34354966  0.06927855     0.94600
O220        O  0.12933488  0.36659200  0.06366851    -0.81500
O221        O  0.38068788  0.12591389  0.26606780    -0.81000
C222        C  0.39025517  0.06161661  0.36553137     0.98400
O223        O  0.39837337  0.05650374  0.34061368    -0.70100
O224        O  0.34744310  0.03739928  0.30512346    -0.73700
Al225      Al  0.39446961  0.07318209  0.30348321     1.49000
C226        C  0.32547627  0.03793798  0.28925129     0.93600
O227        O  0.32674958  0.09849725  0.33384666    -0.79900
O228        O  0.42658625  0.17247748  0.32778392    -0.73500
Al229      Al  0.35504691  0.11181449  0.30024644     1.90100
O230        O  0.36926157  0.13161367  0.36325917    -0.72500
O231        O  0.45175732  0.13319758  0.34020076    -0.72400
O232        O  0.39108923  0.08931836  0.37135136    -0.78000
O233        O  0.44225870  0.10459496  0.29991867    -0.76200
O234        O  0.38602855  0.10481849  0.31729495    -1.12400
O235        O  0.39203298  0.08395088  0.26338048    -0.71600
C236        C  0.39019327  0.10848118  0.25187816     0.99200
C237        C  0.33727066  0.11378565  0.35777022     0.95600
Al238      Al  0.40803171  0.12961947  0.34823873     1.55600
O239        O  0.32634893  0.06592245  0.28493216    -0.76200
C240        C  0.46296207  0.12597504  0.31791867     0.99700
C241        C  0.40843945  0.18140575  0.31422409     0.94600
O242        O  0.37701442  0.15980782  0.30927160    -0.81500
O243        O  0.38586691  0.26357605  0.43681137    -0.81000
C244        C  0.44906223  0.35667718  0.02649920     0.98400
O245        O  0.44695331  0.36570233  0.00131172    -0.70100
O246        O  0.47326802  0.33388334  0.46980044    -0.73700
Al247      Al  0.43408494  0.33828990  0.46802672     1.49000
C248        C  0.47473619  0.31023889  0.45671656     0.93600
O249        O  0.41917966  0.24967269  0.50636486    -0.79900
O250        O  0.33811234  0.26576051  0.00133466    -0.73500
Al251      Al  0.40290349  0.25911441  0.47197749     1.90100
O252        O  0.38507600  0.25965992  0.03546776    -0.72500
O253        O  0.37369677  0.33354618  0.00813400    -0.72400
O254        O  0.42552723  0.32783545  0.03667053    -0.78000
O255        O  0.39817728  0.34743833  0.46396210    -0.76200
O256        O  0.40744952  0.29820969  0.48594977    -1.12400
O257        O  0.42291691  0.31923960  0.43021443    -0.71600
C258        C  0.40059023  0.28971314  0.42069208     0.99200
C259        C  0.40294673  0.24616690  0.02981985     0.95600
Al260      Al  0.38231346  0.29684796  0.01802075     1.55600
O261        O  0.44862435  0.27992310  0.45548229    -0.76200
C262        C  0.37958310  0.34830584  0.48385147     0.99700
C263        C  0.33358186  0.23898746  0.48782676     0.94600
O264        O  0.35574674  0.23044611  0.48328552    -0.81500
C265        C  0.99709927  0.36968413  0.06216437    -0.15600
C266        C  0.48122161  0.38010898  0.04204756    -0.30800
H267        H  0.98179127  0.34394982  0.07161107     0.13400
H268        H  0.49754762  0.40568439  0.03248723     0.14000
C269        C  0.09143217  0.30076324  0.03338265    -0.15600
C270        C  0.08733952  0.30775071  0.06097935    -0.30800
H271        H  0.09427094  0.31852230  0.01631729     0.13400
H272        H  0.08358485  0.28970488  0.07808906     0.14000
C273        C  0.21948871  0.42285614  0.12599040    -0.15600
C274        C  0.19042430  0.42267680  0.13223516    -0.30800
H275        H  0.22584912  0.42140184  0.10359562     0.13400
H276        H  0.18209520  0.42037215  0.15457193     0.14000
C277        C  0.31171693  0.51412985  0.24071767    -0.15600
C278        C  0.30332622  0.00707589  0.27195848    -0.30800
H279        H  0.32798049  0.53982661  0.23139532     0.13400
H280        H  0.29753295  0.98228152  0.28082452     0.14000
C281        C  0.20317292  0.29839956  0.22502371    -0.15600
C282        C  0.20753251  0.30718536  0.19690892    -0.30800
H283        H  0.22271212  0.31477735  0.24056995     0.13400
H284        H  0.18720311  0.29126969  0.18177681     0.14000
C285        C  0.09287858  0.20193568  0.11720998    -0.15600
C286        C  0.11241394  0.22657141  0.13650000    -0.30800
H287        H  0.06924295  0.17857304  0.12414612     0.13400
H288        H  0.13559160  0.25033640  0.12951521     0.14000
C289        C  0.01441084  0.13419496  0.29121138    -0.15600
C290        C  0.50062286  0.14432926  0.31172371    -0.30800
H291        H  0.99725010  0.10898447  0.28158173     0.13400
H292        H  0.51743665  0.16905992  0.32215823     0.14000
C293        C  0.29162834  0.20650835  0.45020239    -0.15600
C294        C  0.29815851  0.21509757  0.47830706    -0.30800
H295        H  0.31018393  0.22274762  0.43371197     0.13400
H296        H  0.27924641  0.19931193  0.49476113     0.14000
C297        C  0.27957347  0.10090359  0.37350695    -0.15600
C298        C  0.31262737  0.11207436  0.37964761    -0.30800
H299        H  0.27012127  0.09249710  0.35181319     0.13400
H300        H  0.32255079  0.12243583  0.40086935     0.14000
C301        C  0.11155223  0.13958282  0.45643584    -0.15600
C302        C  0.14033317  0.15260920  0.44006473    -0.30800
H303        H  0.09633710  0.11180375  0.46033864     0.13400
H304        H  0.15686003  0.18057878  0.43782247     0.14000
C305        C  0.18858043  0.00582634  0.48590252    -0.15600
C306        C  0.18985804  0.51292301  0.01432938    -0.30800
H307        H  0.17745708  0.97947197  0.47799055     0.13400
H308        H  0.19641973  0.53847930  0.02177564     0.14000
C309        C  0.13956265  0.00956685  0.14433807    -0.15600
C310        C  0.11315156  0.49478783  0.12591728    -0.30800
H311        H  0.15048498  0.99534928  0.15367384     0.13400
H312        H  0.10329347  0.51048114  0.11757429     0.14000
C313        C  0.21207046  0.10909814  0.04824285    -0.15600
C314        C  0.18762046  0.10552585  0.03011647    -0.30800
H315        H  0.23394353  0.10744541  0.04060960     0.13400
H316        H  0.16626003  0.10814587  0.03762948     0.14000
C317        C  0.19804483  0.20752815  0.06649115    -0.15600
C318        C  0.19245738  0.20355759  0.09510209    -0.30800
H319        H  0.21490917  0.20040559  0.05578605     0.13400
H320        H  0.17314050  0.20814136  0.10467620     0.14000
C321        C  0.13108683  0.12512157  0.20400554    -0.15600
C322        C  0.14119835  0.14857105  0.22525763    -0.30800
H323        H  0.10564960  0.11524591  0.19475890     0.13400
H324        H  0.16622971  0.15886638  0.23529474     0.14000
C325        C  0.08711999  0.31545828  0.29359871    -0.15600
C326        C  0.09382309  0.29047356  0.29974343    -0.30800
H327        H  0.08063782  0.31812234  0.27167750     0.13400
H328        H  0.10201143  0.28890283  0.32130279     0.14000
C329        C  0.50544745  0.32034587  0.43894879    -0.15600
C330        C  0.00286244  0.31440503  0.41183597    -0.30800
H331        H  0.52967527  0.34225533  0.44649622     0.13400
H332        H  0.97913144  0.29283656  0.40328393     0.14000
C333        C  0.14124685  0.01222363  0.35602552    -0.15600
C334        C  0.12667649  0.02763758  0.37009393    -0.30800
H335        H  0.17111620  0.52436412  0.35346607     0.13400
H336        H  0.09878559  0.01365857  0.37284283     0.14000
C337        C  0.10642942  0.42099450  0.45099596    -0.15600
C338        C  0.10691159  0.39949647  0.47057741    -0.30800
H339        H  0.10944896  0.44559775  0.45754375     0.13400
H340        H  0.10471791  0.37525834  0.46404263     0.14000
C341        C  0.42240046  0.21746333  0.30528838    -0.15600
C342        C  0.41783078  0.22427861  0.27803191    -0.30800
H343        H  0.42619457  0.23570422  0.32228463     0.13400
H344        H  0.41386579  0.20604610  0.26099435     0.14000
C345        C  0.29686363  0.21236996  0.22626193    -0.15600
C346        C  0.29402535  0.21398357  0.19771890    -0.30800
H347        H  0.27713416  0.18996279  0.23817781     0.13400
H348        H  0.31272752  0.23728214  0.18610208     0.14000
C349        C  0.01433910  0.39846666  0.29615972    -0.15600
C350        C  0.49802859  0.37252890  0.27522262    -0.30800
H351        H  0.99999066  0.40950575  0.30537827     0.13400
H352        H  0.51137194  0.36035715  0.26620201     0.14000
C353        C  0.40458143  0.31262356  0.37271486    -0.15600
C354        C  0.39217009  0.28526221  0.39023593    -0.30800
H355        H  0.42029611  0.33884083  0.38097033     0.13400
H356        H  0.37493080  0.25919380  0.38219090     0.14000
C357        C  0.38174042  0.37873428  0.21450319    -0.15600
C358        C  0.35658038  0.36801383  0.19499766    -0.30800
H359        H  0.39331990  0.40510403  0.22263590     0.13400
H360        H  0.34431580  0.34197503  0.18615740     0.14000
C361        C  0.21631326  0.42313022  0.38693437    -0.15600
C362        C  0.20218705  0.41870691  0.36037884    -0.30800
H363        H  0.20384984  0.42701105  0.40543603     0.13400
H364        H  0.21559523  0.41661708  0.34167991     0.14000
C365        C  0.19180900  0.29727529  0.45912134    -0.15600
C366        C  0.21979060  0.32814655  0.46544656    -0.30800
H367        H  0.18642874  0.28933210  0.43674459     0.13400
H368        H  0.22551749  0.33622737  0.48776298     0.14000
C369        C  0.29347420  0.30356792  0.35029280    -0.15600
C370        C  0.29966486  0.31141184  0.32206839    -0.30800
H371        H  0.29913209  0.28520768  0.36002854     0.13400
H372        H  0.29575618  0.33151200  0.31340046     0.14000
C373        C  0.37223619  0.39391352  0.46278012    -0.15600
C374        C  0.35873113  0.36424814  0.47797115    -0.30800
H375        H  0.39995756  0.40855674  0.45875942     0.13400
H376        H  0.33100136  0.34859475  0.48168747     0.14000
C377        C  0.38255944  0.00753920  0.38566475    -0.15600
C378        C  0.37664731  0.03367980  0.38742745    -0.30800
H379        H  0.40128203  0.50828065  0.36946423     0.13400
H380        H  0.35855547  0.03276927  0.40345798     0.14000
C381        C  0.28371206  0.39717045  0.28545896    -0.15600
C382        C  0.31041145  0.41441006  0.30329038    -0.30800
H383        H  0.25933801  0.37520617  0.29310043     0.13400
H384        H  0.33461970  0.43664287  0.29572331     0.14000
C385        C  0.30452007  0.10145465  0.11617727    -0.15600
C386        C  0.29262722  0.10017409  0.14312483    -0.30800
H387        H  0.29063953  0.10313415  0.09789394     0.13400
H388        H  0.30542861  0.09722219  0.16159143     0.14000
C389        C  0.40566740  0.22429991  0.05211696    -0.15600
C390        C  0.41412139  0.20055693  0.04561434    -0.30800
H391        H  0.39687483  0.22514130  0.07379073     0.13400
H392        H  0.42102078  0.19845618  0.02354068     0.14000
C393        C  0.48421207  0.11921291  0.04034904    -0.15600
C394        C  0.99779265  0.14698385  0.02294240    -0.30800
H395        H  0.49820743  0.10606555  0.04441789     0.13400
H396        H  0.98495289  0.16158050  0.02048651     0.14000
C397        C  0.99841976  0.19636657  0.18557008    -0.15600
C398        C  0.50448468  0.20480830  0.15770384    -0.30800
H399        H  0.97329622  0.17595241  0.19348375     0.13400
H400        H  0.53002013  0.22221094  0.14860558     0.14000
C401        C  0.36209939  0.00705388  0.11134237    -0.15600
C402        C  0.37207076  0.49219864  0.12812516    -0.30800
H403        H  0.33471194  0.99162040  0.10645168     0.13400
H404        H  0.39895361  0.50728197  0.13456655     0.14000
C405        C  0.40125210  0.09672071  0.20227159    -0.15600
C406        C  0.39825885  0.11725041  0.22141372    -0.30800
H407        H  0.39843753  0.07228780  0.20898634     0.13400
H408        H  0.40060266  0.14137717  0.21434474     0.14000
O409        O  0.41014544  0.13457029  0.66469802    -0.81000
C410        C  0.45845737  0.11276972  0.56404303     0.98400
O411        O  0.46857182  0.12239171  0.58939677    -0.70100
O412        O  0.47142240  0.14867161  0.64081683    -0.73700
Al413      Al  0.44005337  0.10611014  0.62200915     1.49000
C414        C  0.47617899  0.17883792  0.64027102     0.93600
O415        O  0.40402586  0.17425082  0.59380023    -0.79900
O416        O  0.34837149  0.10200080  0.58736059    -0.73500
Al417      Al  0.40781919  0.15129913  0.62753067     1.90100
O418        O  0.40928769  0.14573420  0.55768665    -0.72500
O419        O  0.36762314  0.05601826  0.59106515    -0.72400
O420        O  0.42686370  0.09889523  0.55733626    -0.78000
O421        O  0.41479302  0.06003741  0.60705447    -0.76200
O422        O  0.41270539  0.12007090  0.60829925    -1.12400
O423        O  0.41351787  0.08837972  0.65612704    -0.71600
C424        C  0.40824597  0.10693599  0.67318688     0.99200
C425        C  0.40914861  0.17181524  0.56724145     0.95600
Al426      Al  0.38980439  0.10193600  0.57583301     1.55600
O427        O  0.45577557  0.18494154  0.62708041    -0.76200
C428        C  0.38285753  0.04211143  0.60204277     0.99700
C429        C  0.33879234  0.10681721  0.61174158     0.94600
O430        O  0.36018208  0.12153012  0.63148715    -0.81500
O431        O  0.28129317  0.38083771  0.84417960    -0.81000
C432        C  0.34756339  0.40101306  0.94566711     0.98400
O433        O  0.34663047  0.38884548  0.92101260    -0.70100
O434        O  0.32440885  0.36309398  0.86966215    -0.73700
Al435      Al  0.33981928  0.40641553  0.88700903     1.49000
C436        C  0.29685125  0.33413210  0.87084821     0.93600
O437        O  0.23385673  0.34720728  0.91639017    -0.79900
O438        O  0.25921938  0.42607760  0.91581909    -0.73500
Al439      Al  0.26076671  0.36646041  0.88178850     1.90100
O440        O  0.26664486  0.38119661  0.95119940    -0.72500
O441        O  0.32787897  0.46556102  0.91115361    -0.72400
O442        O  0.33469373  0.42002339  0.95036051    -0.78000
O443        O  0.36697428  0.45303618  0.90029996    -0.76200
O444        O  0.29882636  0.39788589  0.89969399    -1.12400
O445        O  0.33493276  0.42387670  0.85176254    -0.71600
C446        C  0.30975029  0.40647540  0.83514827     0.99200
C447        C  0.24021964  0.35359150  0.94293158     0.95600
Al448      Al  0.29736652  0.42159241  0.92982862     1.55600
O449        O  0.27103271  0.33066524  0.88419598    -0.76200
C450        C  0.35749259  0.47469174  0.90122774     0.99700
C451        C  0.24205182  0.41665445  0.89267950     0.94600
O452        O  0.24470376  0.39658720  0.87567756    -0.81500
O453        O  0.38321323  0.28124727  0.82916427    -0.81000
C454        C  0.38782307  0.35621242  0.73017298     0.98400
O455        O  0.39915485  0.36772917  0.75476026    -0.70100
O456        O  0.34813116  0.33464253  0.79250915    -0.73700
Al457      Al  0.39469834  0.34550023  0.79033056     1.49000
C458        C  0.32555377  0.31030337  0.80811328     0.93600
O459        O  0.32044860  0.24555317  0.76851751    -0.79900
O460        O  0.41553225  0.27267881  0.75632360    -0.73500
Al461      Al  0.35362503  0.26599667  0.79747635     1.90100
O462        O  0.35473152  0.25955837  0.73062308    -0.72500
O463        O  0.44484011  0.33926015  0.74774965    -0.72400
O464        O  0.38175893  0.32667568  0.72274073    -0.78000
O465        O  0.44153427  0.35944417  0.79001219    -0.76200
O466        O  0.38199406  0.30364747  0.77646965    -1.12400
O467        O  0.39433862  0.33461689  0.82966869    -0.71600
C468        C  0.39328791  0.30939484  0.84203494     0.99200
C469        C  0.32518873  0.24160537  0.74246000     0.95600
Al470      Al  0.39781243  0.29993326  0.74206358     1.55600
O471        O  0.32701030  0.28369327  0.81330194    -0.76200
C472        C  0.45931500  0.35696702  0.77017020     0.99700
C473        C  0.40134900  0.24775726  0.77381824     0.94600
O474        O  0.37417203  0.24056388  0.78715735    -0.81500
O475        O  0.09607003  0.38340562  0.91199237    -0.81000
C476        C  0.04106722  0.40172778  0.81422954     0.98400
O477        O  0.03355716  0.39430625  0.84045659    -0.70100
O478        O  0.03408248  0.36963722  0.89172140    -0.73700
Al479      Al  0.06442416  0.41155567  0.87123530     1.49000
C480        C  0.02866607  0.33922676  0.89103563     0.93600
O481        O  0.09807205  0.34191468  0.84042747    -0.79900
O482        O  0.15466301  0.41623337  0.83193209    -0.73500
Al483      Al  0.09627103  0.36582862  0.87435753     1.90100
O484        O  0.09269930  0.37019199  0.80454468    -0.72500
O485        O  0.13394967  0.46095503  0.83542026    -0.72400
O486        O  0.07206649  0.41478167  0.80510807    -0.78000
O487        O  0.08851921  0.45760290  0.85526116    -0.76200
O488        O  0.09071051  0.39697231  0.85561126    -1.12400
O489        O  0.09321464  0.42991651  0.90374254    -0.71600
C490        C  0.09853431  0.41129521  0.92057259     0.99200
C491        C  0.09276346  0.34414596  0.81403238     0.95600
Al492      Al  0.11165859  0.41426227  0.82188765     1.55600
O493        O  0.04801983  0.33247523  0.87643622    -0.76200
C494        C  0.11968922  0.47550683  0.84728474     0.99700
C495        C  0.16525397  0.41132956  0.85567257     0.94600
O496        O  0.14433638  0.39518010  0.87579847    -0.81500
O497        O  0.23799599  0.12684981  0.59483356    -0.81000
C498        C  0.15490201  0.11805108  0.68900044     0.98400
O499        O  0.14467746  0.10500137  0.66450848    -0.70100
O500        O  0.17761729  0.15705104  0.62841864    -0.73700
Al501      Al  0.16950798  0.11152456  0.62963739     1.49000
C502        C  0.20126414  0.18037987  0.61295638     0.93600
O503        O  0.26338735  0.18948902  0.65576200    -0.79900
O504        O  0.24129518  0.09351723  0.66515317    -0.73500
Al505      Al  0.24846707  0.15664001  0.62621419     1.90100
O506        O  0.25215566  0.15381887  0.69213453    -0.72500
O507        O  0.17408498  0.06255993  0.67330049    -0.72400
O508        O  0.18426483  0.12532709  0.69776594    -0.78000
O509        O  0.15798141  0.06529284  0.62937945    -0.76200
O510        O  0.21029331  0.12604903  0.64531143    -1.12400
O511        O  0.18450339  0.11417687  0.59067356    -0.71600
C512        C  0.21137320  0.11641620  0.58009366     0.99200
C513        C  0.26799430  0.18421944  0.68142276     0.95600
Al514      Al  0.21273152  0.11009168  0.67960374     1.55600
O515        O  0.22897789  0.18082544  0.60808654    -0.76200
C516        C  0.15792398  0.04767704  0.65041212     0.99700
C517        C  0.26794591  0.11028705  0.64955013     0.94600
O518        O  0.27600786  0.13922202  0.63896084    -0.81500
O519        O  0.21366696  0.09484017  0.99073510    -0.81000
C520        C  0.14539220  0.05359035  0.88965512     0.98400
O521        O  0.14167174  0.04296533  0.91523941    -0.70100
O522        O  0.16337979  0.03627566  0.96603551    -0.73700
Al523      Al  0.15521751  0.07000236  0.94849993     1.49000
C524        C  0.18787063  0.03053528  0.96445491     0.93600
O525        O  0.26081643  0.10486739  0.91983299    -0.79900
O526        O  0.24752504  0.16353085  0.91724981    -0.73500
Al527      Al  0.23317335  0.09908231  0.95335744     1.90100
O528        O  0.22997685  0.10499874  0.88389815    -0.72500
O529        O  0.18208560  0.14396515  0.91882891    -0.72400
O530        O  0.16493441  0.08560194  0.88332426    -0.78000
O531        O  0.13642607  0.09740537  0.93536973    -0.76200
O532        O  0.19806713  0.09715544  0.93479430    -1.12400
O533        O  0.16584439  0.09510044  0.98317448    -0.71600
C534        C  0.19155593  0.10066924  0.50108203     0.99200
C535        C  0.25512269  0.10350455  0.89316364     0.95600
Al536      Al  0.20535373  0.12247860  0.90326927     1.55600
O537        O  0.21500047  0.05070933  0.95052175    -0.76200
C538        C  0.15237252  0.12950307  0.92992399     0.99700
C539        C  0.26143233  0.17021311  0.94190652     0.97000
O540        O  0.25439162  0.14636590  0.95943896    -0.81500
O541        O  0.11791688  0.24929293  0.68486470    -0.81000
C542        C  0.04760982  0.15866093  0.77724227     0.98400
O543        O  0.04828092  0.14922898  0.75175483    -0.70100
O544        O  0.02808492  0.18171787  0.71831489    -0.73700
Al545      Al  0.06647274  0.17580640  0.71716518     1.49000
C546        C  0.02802316  0.20582231  0.70482977     0.93600
O547        O  0.08224279  0.26515986  0.75362650    -0.79900
O548        O  0.15956433  0.24725623  0.74938739    -0.73500
Al549      Al  0.09952488  0.25503845  0.71974545     1.90100
O550        O  0.11309277  0.25493002  0.78383961    -0.72500
O551        O  0.12286016  0.17966657  0.75709740    -0.72400
O552        O  0.07214908  0.18714888  0.78665495    -0.78000
O553        O  0.10150953  0.16545655  0.71377885    -0.76200
O554        O  0.09362781  0.21585509  0.73460325    -1.12400
O555        O  0.07916665  0.19409172  0.67862453    -0.71600
C556        C  0.10300717  0.22301885  0.66885855     0.99200
C557        C  0.09593732  0.26908478  0.77807909     0.95600
Al558      Al  0.11518909  0.21707666  0.76686831     1.55600
O559        O  0.05501192  0.23532364  0.70273473    -0.76200
C560        C  0.12057627  0.16520830  0.73317900     0.99700
C561        C  0.16759776  0.27503047  0.73631954     0.94600
O562        O  0.14548879  0.28338539  0.73188691    -0.81500
O563        O  0.26746573  0.41486293  0.74641959    -0.81000
C564        C  0.35180977  0.46731650  0.65187787     0.98400
O565        O  0.35243030  0.47517279  0.67802242    -0.70100
O566        O  0.32335519  0.47709955  0.72706373    -0.73700
Al567      Al  0.33291525  0.44477601  0.70929802     1.49000
C568        C  0.29984653  0.48406610  0.72501450     0.93600
O569        O  0.23299997  0.41657196  0.67282056    -0.79900
O570        O  0.24695245  0.35626335  0.66804120    -0.73500
Al571      Al  0.25471414  0.41658761  0.70793770     1.90100
O572        O  0.26706159  0.41779692  0.63854811    -0.72500
O573        O  0.31095728  0.37507830  0.67358675    -0.72400
O574        O  0.33171771  0.43676233  0.64278450    -0.78000
O575        O  0.35261989  0.41828447  0.69679875    -0.76200
O576        O  0.29233613  0.42013208  0.69165465    -1.12400
O577        O  0.31676763  0.41639065  0.74244872    -0.71600
C578        C  0.29062473  0.41076606  0.75697878     0.99200
C579        C  0.24175643  0.42010075  0.64660343     0.95600
Al580      Al  0.28952755  0.39844052  0.65847958     1.55600
O581        O  0.27361929  0.46552101  0.70982706    -0.76200
C582        C  0.33856020  0.38773907  0.68740535     0.99700
C583        C  0.23041418  0.34683203  0.69159917     0.94600
O584        O  0.23257088  0.36857790  0.70960677    -0.81500
O585        O  0.13194039  0.23227493  0.57948890    -0.81000
C586        C  0.10446989  0.16026183  0.97574985     0.98400
O587        O  0.11267552  0.15874939  0.00127066    -0.70100
O588        O  0.14390923  0.18473205  0.55349245    -0.73700
Al589      Al  0.10124788  0.17290419  0.53628509     1.49000
C590        C  0.17428194  0.21068968  0.55208246     0.93600
O591        O  0.16993438  0.28048677  0.50751426    -0.79900
O592        O  0.09512915  0.26054987  0.00175433    -0.73500
Al593      Al  0.14761051  0.25217365  0.54156575     1.90100
O594        O  0.13834287  0.24571898  0.96991025    -0.72500
O595        O  0.04941613  0.19386768  0.00348762    -0.72400
O596        O  0.09225530  0.17914833  0.96904271    -0.78000
O597        O  0.05472233  0.15100829  0.52273006    -0.76200
O598        O  0.11563197  0.21510935  0.52258694    -1.12400
O599        O  0.08510990  0.18169397  0.57111663    -0.71600
C600        C  0.10408200  0.20581736  0.58821761     0.99200
C601        C  0.16425155  0.27289587  0.97918508     0.95600
Al602      Al  0.09515218  0.21927617  0.98856698     1.55600
O603        O  0.18063089  0.23822027  0.53970648    -0.76200
C604        C  0.03728764  0.16467098  0.51673568     0.99700
C605        C  0.10221971  0.27511992  0.52784435     0.94600
O606        O  0.11834057  0.26948639  0.54669533    -0.81500
O607        O  0.12273969  0.39385321  0.51707838    -0.81000
C608        C  0.10303008  0.46325881  0.60876895     0.98400
O609        O  0.09240163  0.46186248  0.58350246    -0.70100
O610        O  0.14555735  0.48336455  0.54889562    -0.73700
Al611      Al  0.10041296  0.44386727  0.54900794     1.49000
C612        C  0.16892124  0.48398713  0.53360566     0.93600
O613        O  0.17594019  0.43202439  0.58438520    -0.79900
O614        O  0.07894564  0.35149857  0.58260209    -0.73500
Al615      Al  0.14758131  0.41337597  0.55109590     1.90100
O616        O  0.13413509  0.40028442  0.61540306    -0.72500
O617        O  0.04748324  0.38677952  0.59037717    -0.72400
O618        O  0.10708318  0.43938555  0.61833012    -0.78000
O619        O  0.05391383  0.40782860  0.54684367    -0.76200
O620        O  0.11370293  0.41781112  0.56641241    -1.12400
O621        O  0.10577365  0.43109546  0.51074471    -0.71600
C622        C  0.11168664  0.40838325  0.50108353     0.99200
C623        C  0.16596720  0.41847329  0.60913754     0.95600
Al624      Al  0.09342864  0.39618692  0.59919874     1.55600
O625        O  0.17236535  0.45802634  0.53262433    -0.76200
C626        C  0.03459294  0.38914440  0.56710345     0.99700
C627        C  0.09903052  0.34403476  0.56973996     0.94600
O628        O  0.12976415  0.36724098  0.56383860    -0.81500
O629        O  0.38205894  0.12809514  0.76666025    -0.81000
C630        C  0.39134534  0.06461272  0.86644845     0.98400
O631        O  0.39939969  0.05916036  0.84165177    -0.70100
O632        O  0.34920616  0.03939761  0.80537431    -0.73700
Al633      Al  0.39614597  0.07571819  0.80443667     1.49000
C634        C  0.32760825  0.03944943  0.78869752     0.93600
O635        O  0.32639888  0.09837023  0.83338612    -0.79900
O636        O  0.42545522  0.17481009  0.82827400    -0.73500
Al637      Al  0.35541477  0.11290333  0.80023258     1.90100
O638        O  0.36813739  0.13214926  0.86333617    -0.72500
O639        O  0.45291323  0.13771349  0.84066499    -0.72400
O640        O  0.39246679  0.09245663  0.87205873    -0.78000
O641        O  0.44407293  0.10743250  0.80146644    -0.76200
O642        O  0.38683708  0.10691918  0.81778475    -1.12400
O643        O  0.39433745  0.08666492  0.76447028    -0.71600
C644        C  0.39212777  0.11089339  0.75280681     0.99200
C645        C  0.33626258  0.11347270  0.85747642     0.95600
Al646      Al  0.40819531  0.13222331  0.84868296     1.55600
O647        O  0.32808057  0.06716132  0.78406986    -0.76200
C648        C  0.46453181  0.12986664  0.81897564     0.99700
C649        C  0.40650086  0.18289834  0.81503910     0.94600
O650        O  0.37543415  0.16048139  0.80980248    -0.81500
O651        O  0.38153800  0.26346043  0.93636422    -0.81000
C652        C  0.45204805  0.35626650  0.52743611     0.98400
O653        O  0.45060393  0.36551874  0.50214076    -0.70100
O654        O  0.46952945  0.33422034  0.96846332    -0.73700
Al655      Al  0.43001320  0.33824472  0.96741293     1.49000
C656        C  0.47112221  0.31052983  0.95551865     0.93600
O657        O  0.41678174  0.25005624  0.00523983    -0.79900
O658        O  0.34152327  0.26676598  0.50085190    -0.73500
Al659      Al  0.39952561  0.25916815  0.97123834     1.90100
O660        O  0.38684896  0.25935411  0.53577058    -0.72500
O661        O  0.37764415  0.33439131  0.50796534    -0.72400
O662        O  0.42820731  0.32743088  0.53733117    -0.78000
O663        O  0.39365953  0.34694424  0.96397031    -0.76200
O664        O  0.40396380  0.29812510  0.98549126    -1.12400
O665        O  0.41843567  0.31914676  0.92981358    -0.71600
C666        C  0.39609058  0.28967566  0.92028193     0.99200
C667        C  0.40445703  0.24548149  0.53056143     0.95600
Al668      Al  0.38531439  0.29711980  0.51812228     1.55600
O669        O  0.44498509  0.28024739  0.95414541    -0.76200
C670        C  0.37503742  0.34730678  0.98408083     0.99700
C671        C  0.33033125  0.23808951  0.98815911     0.94600
O672        O  0.35276480  0.23004090  0.98323972    -0.81500
C673        C  0.99666334  0.36905347  0.56271253    -0.15600
C674        C  0.48374528  0.37950424  0.54353923    -0.30800
H675        H  0.98145202  0.34327097  0.57208585     0.13400
H676        H  0.50012488  0.40524490  0.53426776     0.14000
C677        C  0.09278988  0.30122255  0.53434781    -0.15600
C678        C  0.08822647  0.30825259  0.56178130    -0.30800
H679        H  0.09577314  0.31887432  0.51713138     0.13400
H680        H  0.08428454  0.29032136  0.57905116     0.14000
C681        C  0.22138610  0.42544652  0.62470438    -0.15600
C682        C  0.19065791  0.42170525  0.63123163    -0.30800
H683        H  0.23011989  0.42910519  0.60240738     0.13400
H684        H  0.18116919  0.41603917  0.65331802     0.14000
C685        C  0.30217937  0.51157748  0.74368812    -0.15600
C686        C  0.30622095  0.00831657  0.77132743    -0.30800
H687        H  0.30824148  0.53604073  0.73401047     0.13400
H688        H  0.30160011  0.98390229  0.78013755     0.14000
C689        C  0.20262712  0.29913162  0.72588115    -0.15600
C690        C  0.20666574  0.31015319  0.69836270    -0.30800
H691        H  0.22206690  0.31451357  0.74183570     0.13400
H692        H  0.18758872  0.29444044  0.68228493     0.14000
C693        C  0.09398572  0.20223402  0.61881833    -0.15600
C694        C  0.11317751  0.22666874  0.63829277    -0.30800
H695        H  0.07024538  0.17881432  0.62548768     0.13400
H696        H  0.13650484  0.25045606  0.63155373     0.14000
C697        C  0.01598879  0.13609918  0.79435297    -0.15600
C698        C  0.50237376  0.14860543  0.81275004    -0.30800
H699        H  0.99902348  0.11030988  0.78560143     0.13400
H700        H  0.51873314  0.17431475  0.82179827     0.14000
C701        C  0.28854922  0.20552348  0.95043811    -0.15600
C702        C  0.29492429  0.21379305  0.97863658    -0.30800
H703        H  0.30694123  0.22234679  0.93408916     0.13400
H704        H  0.27621307  0.19741176  0.99498837     0.14000
C705        C  0.27857811  0.10136950  0.87219551    -0.15600
C706        C  0.31095725  0.11067214  0.87912688    -0.30800
H707        H  0.27009580  0.09493502  0.85004983     0.13400
H708        H  0.32007923  0.11923171  0.90087556     0.14000
C709        C  0.10865804  0.13828205  0.95450731    -0.15600
C710        C  0.13790461  0.15117406  0.93877727    -0.30800
H711        H  0.09304850  0.11046873  0.95809661     0.13400
H712        H  0.15470406  0.17914530  0.93684391     0.14000
C713        C  0.18688455  0.00439534  0.98379666    -0.15600
C714        C  0.18727112  0.51246782  0.51294280    -0.30800
H715        H  0.17591634  0.97801492  0.97601104     0.13400
H716        H  0.19209792  0.53768132  0.51962293     0.14000
C717        C  0.13966340  0.00939039  0.64692821    -0.15600
C718        C  0.11243854  0.49495794  0.62532726    -0.30800
H719        H  0.15117422  0.99545105  0.65570248     0.13400
H720        H  0.10257214  0.51054003  0.61675626     0.14000
C721        C  0.21257445  0.10870938  0.54993720    -0.15600
C722        C  0.18941175  0.10722592  0.53145384    -0.30800
H723        H  0.23392806  0.10601203  0.54258542     0.13400
H724        H  0.16856552  0.11080992  0.53872668     0.14000
C725        C  0.20048679  0.20942462  0.56918795    -0.15600
C726        C  0.19380368  0.20387109  0.59757229    -0.30800
H727        H  0.21815997  0.20338590  0.55845997     0.13400
H728        H  0.17396560  0.20772949  0.60708127     0.14000
C729        C  0.13170351  0.12595785  0.70535957    -0.15600
C730        C  0.14139789  0.14910548  0.72685813    -0.30800
H731        H  0.10643488  0.11624643  0.69584442     0.13400
H732        H  0.16623352  0.15918943  0.73719598     0.14000
C733        C  0.08781655  0.31696044  0.79332754    -0.15600
C734        C  0.09411240  0.29183586  0.80009734    -0.30800
H735        H  0.08169912  0.31948760  0.77125528     0.13400
H736        H  0.10196085  0.29039460  0.82181986     0.14000
C737        C  0.50244147  0.32043694  0.93860185    -0.15600
C738        C  0.00229355  0.31345811  0.91067939    -0.30800
H739        H  0.52611640  0.34321030  0.94604210     0.13400
H740        H  0.97805676  0.29305081  0.90179819     0.14000
C741        C  0.14102270  0.01148035  0.85446447    -0.15600
C742        C  0.12610644  0.02711477  0.86765465    -0.30800
H743        H  0.16841348  0.52569608  0.85266538     0.13400
H744        H  0.09813238  0.01327217  0.86963599     0.14000
C745        C  0.10541058  0.42103735  0.95096002    -0.15600
C746        C  0.10697889  0.39992075  0.97036069    -0.30800
H747        H  0.10779681  0.44530154  0.95771237     0.13400
H748        H  0.10534999  0.37601046  0.96359529     0.14000
C749        C  0.41912394  0.21872509  0.80653742    -0.15600
C750        C  0.41532206  0.22547872  0.77911940    -0.30800
H751        H  0.42143627  0.23639611  0.82354788     0.13400
H752        H  0.41258628  0.20767431  0.76208601     0.14000
C753        C  0.29585258  0.21387072  0.72651973    -0.15600
C754        C  0.29441758  0.21405878  0.69784384    -0.30800
H755        H  0.27526864  0.19240026  0.73870293     0.13400
H756        H  0.31389631  0.23654863  0.68583356     0.14000
C757        C  0.01262294  0.39719626  0.79575074    -0.15600
C758        C  0.49713501  0.37298557  0.77487936    -0.30800
H759        H  0.99788904  0.40793807  0.80473139     0.13400
H760        H  0.51006360  0.36051449  0.76561670     0.14000
C761        C  0.40264699  0.31296351  0.87212800    -0.15600
C762        C  0.38778101  0.28558561  0.88979637    -0.30800
H763        H  0.42001338  0.33894298  0.88029548     0.13400
H764        H  0.36914989  0.25990036  0.88176011     0.14000
C765        C  0.38097814  0.37835015  0.71155986    -0.15600
C766        C  0.35309575  0.36583808  0.69467585    -0.30800
H767        H  0.39508589  0.40579340  0.71683196     0.13400
H768        H  0.33776158  0.33822123  0.69024044     0.14000
C769        C  0.21539291  0.42544521  0.88636741    -0.15600
C770        C  0.20170481  0.42111805  0.85969651    -0.30800
H771        H  0.20268439  0.42937801  0.90466668     0.13400
H772        H  0.21524198  0.41894004  0.84113407     0.14000
C773        C  0.18972408  0.29733136  0.95791604    -0.15600
C774        C  0.21641217  0.32878762  0.96494489    -0.30800
H775        H  0.18549055  0.28954253  0.93546215     0.13400
H776        H  0.22086520  0.33666898  0.98736439     0.14000
C777        C  0.29446260  0.30709561  0.85197049    -0.15600
C778        C  0.30055391  0.31558195  0.82382012    -0.30800
H779        H  0.30011894  0.28851057  0.86123232     0.13400
H780        H  0.29691321  0.33605413  0.81564698     0.14000
C781        C  0.36641220  0.39419864  0.96781886    -0.15600
C782        C  0.35299681  0.36190101  0.97838237    -0.30800
H783        H  0.39422080  0.41193671  0.96843465     0.13400
H784        H  0.32533955  0.34362755  0.97705714     0.14000
C785        C  0.38348685  0.01085675  0.88678141    -0.15600
C786        C  0.37733703  0.03678489  0.88838143    -0.30800
H787        H  0.40019583  0.51069647  0.87292991     0.13400
H788        H  0.35873330  0.03562719  0.90398339     0.14000
C789        C  0.28698696  0.40046824  0.78699042    -0.15600
C790        C  0.31405331  0.41528591  0.80456920    -0.30800
H791        H  0.26105753  0.38298157  0.79535101     0.13400
H792        H  0.33953486  0.43468070  0.79644253     0.14000
C793        C  0.30340679  0.09924031  0.61681873    -0.15600
C794        C  0.29134202  0.09753667  0.64383184    -0.30800
H795        H  0.28999273  0.10187228  0.59863892     0.13400
H796        H  0.30367454  0.09356888  0.66212875     0.14000
C797        C  0.40581834  0.22285026  0.55284806    -0.15600
C798        C  0.41383195  0.19877054  0.54646490    -0.30800
H799        H  0.39657137  0.22360345  0.57435877     0.13400
H800        H  0.42127167  0.19684104  0.52453636     0.14000
C801        C  0.48454259  0.11755259  0.54278277    -0.15600
C802        C  0.00048151  0.14727994  0.52517528    -0.30800
H803        H  0.49932649  0.10549739  0.54787767     0.13400
H804        H  0.98716847  0.16131388  0.52202759     0.14000
C805        C  0.99782359  0.19724659  0.68763485    -0.15600
C806        C  0.50249495  0.20484486  0.65922336    -0.30800
H807        H  0.97319045  0.17570634  0.69528197     0.13400
H808        H  0.52762762  0.22340277  0.65004807     0.14000
C809        C  0.36290256  0.00560730  0.61159234    -0.15600
C810        C  0.37506330  0.49502124  0.63214694    -0.30800
H811        H  0.33537790  0.99053090  0.60709331     0.13400
H812        H  0.40116386  0.51237206  0.63981409     0.14000
C813        C  0.40130558  0.09729440  0.70362670    -0.15600
C814        C  0.40002891  0.11910336  0.72242338    -0.30800
H815        H  0.39764581  0.07261616  0.71068013     0.13400
H816        H  0.40322040  0.14351161  0.71510109     0.14000
O817        O  0.41367853  0.63625464  0.16455494    -0.81000
C818        C  0.45806142  0.61289028  0.06210288     0.98400
O819        O  0.46844515  0.62125341  0.08754381    -0.70100
O820        O  0.47363512  0.64821797  0.13901912    -0.73700
Al821      Al  0.44061001  0.60586657  0.12064890     1.49000
C822        C  0.47934668  0.67876558  0.13876752     0.93600
O823        O  0.40697800  0.67691665  0.09396224    -0.79900
O824        O  0.35000939  0.60507385  0.08796991    -0.73500
Al825      Al  0.41089879  0.65328591  0.12739433     1.90100
O826        O  0.41037974  0.64783607  0.05743782    -0.72500
O827        O  0.36730114  0.55780274  0.09000790    -0.72400
O828        O  0.42647094  0.59995877  0.05577555    -0.78000
O829        O  0.41335846  0.55955090  0.10607562    -0.76200
O830        O  0.41407365  0.62124280  0.10766015    -1.12400
O831        O  0.41502450  0.58908193  0.15537054    -0.71600
C832        C  0.41135132  0.60834273  0.17287841     0.99200
C833        C  0.41091193  0.67415854  0.06720646     0.95600
Al834      Al  0.39040948  0.60389577  0.07533696     1.55600
O835        O  0.45920372  0.68571435  0.12613104    -0.76200
C836        C  0.38144883  0.54268399  0.10069019     0.99700
C837        C  0.34117707  0.61030204  0.11252666     0.94600
O838        O  0.36302879  0.62471016  0.13205814    -0.81500
O839        O  0.28480548  0.87985550  0.34419758    -0.81000
C840        C  0.35134718  0.90116817  0.44621324     0.98400
O841        O  0.35004930  0.88829489  0.42183507    -0.70100
O842        O  0.32708157  0.86104197  0.37106123    -0.73700
Al843      Al  0.34327344  0.90510995  0.38730670     1.49000
C844        C  0.29896598  0.83253786  0.37207904     0.93600
O845        O  0.23689843  0.84814605  0.41653645    -0.79900
O846        O  0.26265498  0.92557854  0.41597348    -0.73500
Al847      Al  0.26415006  0.86653508  0.38181000     1.90100
O848        O  0.27073750  0.88110438  0.45135227    -0.72500
O849        O  0.33133063  0.96475325  0.41063129    -0.72400
O850        O  0.33870420  0.92042552  0.45039363    -0.78000
O851        O  0.37052206  0.95228157  0.39955895    -0.76200
O852        O  0.30244546  0.89739476  0.39973473    -1.12400
O853        O  0.33890611  0.92178867  0.35145456    -0.71600
C854        C  0.31359063  0.90470726  0.33493208     0.99200
C855        C  0.24367929  0.85408901  0.44310299     0.95600
Al856      Al  0.30115297  0.92135615  0.42976762     1.55600
O857        O  0.27314319  0.82996895  0.38474234    -0.76200
C858        C  0.36069732  0.97373197  0.40021211     0.99700
C859        C  0.24596298  0.91694050  0.39257039     0.94600
O860        O  0.24939236  0.89777821  0.37507357    -0.81500
O861        O  0.38633460  0.78232222  0.33141249    -0.81000
C862        C  0.38924570  0.85579783  0.23154376     0.98400
O863        O  0.40000950  0.86696995  0.25626141    -0.70100
O864        O  0.34889606  0.83296152  0.29387903    -0.73700
Al865      Al  0.39580931  0.84485242  0.29170105     1.49000
C866        C  0.32661333  0.80832178  0.30946069     0.93600
O867        O  0.32311476  0.74280655  0.27088449    -0.79900
O868        O  0.41716042  0.77165318  0.25715967    -0.73500
Al869      Al  0.35654193  0.76540067  0.29971207     1.90100
O870        O  0.35597364  0.75910551  0.23198749    -0.72500
O871        O  0.44630734  0.83846463  0.24940990    -0.72400
O872        O  0.38337858  0.82632669  0.22409504    -0.78000
O873        O  0.44289553  0.85961338  0.29125074    -0.76200
O874        O  0.38379262  0.80293766  0.27809494    -1.12400
O875        O  0.39581487  0.83497690  0.33120222    -0.71600
C876        C  0.39583635  0.81055401  0.34393409     0.99200
C877        C  0.32698650  0.73997984  0.24437454     0.95600
Al878      Al  0.39930826  0.79926447  0.24347282     1.55600
O879        O  0.32879203  0.78213320  0.31475331    -0.76200
C880        C  0.46071060  0.85683719  0.27157152     0.99700
C881        C  0.40475696  0.74788110  0.27578851     0.94600
O882        O  0.37861194  0.74127269  0.29039798    -0.81500
O883        O  0.09901647  0.88284333  0.41330418    -0.81000
C884        C  0.04263996  0.90117919  0.31643657     0.98400
O885        O  0.03540903  0.89297912  0.34253560    -0.70100
O886        O  0.03659443  0.86807444  0.39310787    -0.73700
Al887      Al  0.06652762  0.91037367  0.37295838     1.49000
C888        C  0.03150301  0.83782443  0.39166928     0.93600
O889        O  0.10165248  0.84206858  0.34109180    -0.79900
O890        O  0.15709759  0.91612817  0.33282419    -0.73500
Al891      Al  0.09957750  0.86566099  0.37546565     1.90100
O892        O  0.09463976  0.87000481  0.30582146    -0.72500
O893        O  0.13577525  0.96057780  0.33712746    -0.72400
O894        O  0.07360100  0.91447155  0.30702795    -0.78000
O895        O  0.09001597  0.95643738  0.35711095    -0.76200
O896        O  0.09315492  0.89641212  0.35702108    -1.12400
O897        O  0.09548038  0.92896723  0.40511819    -0.71600
C898        C  0.10103802  0.91054982  0.42190078     0.99200
C899        C  0.09542320  0.84416463  0.31485339     0.95600
Al900      Al  0.11366648  0.91399633  0.32329887     1.55600
O901        O  0.05169881  0.83180215  0.37758175    -0.76200
C902        C  0.12111252  0.97472472  0.34902898     0.99700
C903        C  0.16819227  0.91154057  0.35647275     0.94600
O904        O  0.14760488  0.89571750  0.37686407    -0.81500
O905        O  0.23883366  0.63025560  0.09443174    -0.81000
C906        C  0.15309810  0.61603512  0.18818077     0.98400
O907        O  0.14356782  0.60340231  0.16352708    -0.70100
O908        O  0.17622854  0.65699925  0.12875843    -0.73700
Al909      Al  0.16930795  0.61189095  0.12902198     1.49000
C910        C  0.19963478  0.68083516  0.11347803     0.93600
O911        O  0.26242677  0.69062347  0.15743332    -0.79900
O912        O  0.24223120  0.59524351  0.16487384    -0.73500
Al913      Al  0.24827463  0.65873864  0.12682332     1.90100
O914        O  0.25098963  0.65387735  0.19294440    -0.72500
O915        O  0.17434977  0.56239494  0.17166408    -0.72400
O916        O  0.18251437  0.62385957  0.19728762    -0.78000
O917        O  0.15881799  0.56600600  0.12773020    -0.76200
O918        O  0.21006470  0.62687849  0.14514237    -1.12400
O919        O  0.18492556  0.61616649  0.09021716    -0.71600
C920        C  0.21215943  0.61938197  0.07958710     0.99200
C921        C  0.26702391  0.68462728  0.18294341     0.95600
Al922      Al  0.21225574  0.61016334  0.17918722     1.55600
O923        O  0.22812875  0.68264705  0.10926816    -0.76200
C924        C  0.15838577  0.54794774  0.14856149     0.99700
C925        C  0.26922331  0.61310495  0.14985542     0.94600
O926        O  0.27629947  0.64166338  0.13907424    -0.81500
O927        O  0.21400406  0.59509886  0.49013991    -0.81000
C928        C  0.14881468  0.55603299  0.38767086     0.98400
O929        O  0.14458931  0.54471734  0.41306809    -0.70100
O930        O  0.16416153  0.53699945  0.46465399    -0.73700
Al931      Al  0.15694565  0.57110127  0.44669246     1.49000
C932        C  0.18858321  0.53113723  0.46401410     0.93600
O933        O  0.26318295  0.60531712  0.42007330    -0.79900
O934        O  0.25081159  0.66502201  0.41779448    -0.73500
Al935      Al  0.23467725  0.59947522  0.45324208     1.90100
O936        O  0.23379330  0.60718858  0.38368570    -0.72500
O937        O  0.18537058  0.64588681  0.41838717    -0.72400
O938        O  0.16864811  0.58821566  0.38195453    -0.78000
O939        O  0.13878699  0.59895031  0.43309823    -0.76200
O940        O  0.20034491  0.59833783  0.43402814    -1.12400
O941        O  0.16639337  0.59551231  0.48163668    -0.71600
C942        C  0.19100461  0.60129416  0.00071582     0.99200
C943        C  0.25839395  0.60489798  0.39326741     0.95600
Al944      Al  0.20878652  0.62447637  0.40285945     1.55600
O945        O  0.21593405  0.55093494  0.45017116    -0.76200
C946        C  0.15525841  0.63129686  0.42871708     0.99700
C947        C  0.26433605  0.67108081  0.44259412     0.97000
O948        O  0.25650936  0.64679847  0.45986077    -0.81500
O949        O  0.11825852  0.75001150  0.18244645    -0.81000
C950        C  0.04504021  0.65742462  0.27328010     0.98400
O951        O  0.04603547  0.64881707  0.24758578    -0.70100
O952        O  0.02777112  0.68337837  0.21420992    -0.73700
Al953      Al  0.06552368  0.67618308  0.21364028     1.49000
C954        C  0.02886922  0.70902379  0.20230802     0.93600
O955        O  0.08425819  0.76652611  0.25221066    -0.79900
O956        O  0.15869547  0.74479269  0.24778778    -0.73500
Al957      Al  0.10063073  0.75581131  0.21788196     1.90100
O958        O  0.11289155  0.75331736  0.28222251    -0.72500
O959        O  0.11973993  0.67719242  0.25447090    -0.72400
O960        O  0.06960939  0.68549046  0.28338419    -0.78000
O961        O  0.09998209  0.66458750  0.21056838    -0.76200
O962        O  0.09307737  0.71562729  0.23198002    -1.12400
O963        O  0.07910134  0.69512783  0.17560918    -0.71600
C964        C  0.10302354  0.72406464  0.16610971     0.99200
C965        C  0.09723500  0.76904361  0.27678484     0.95600
Al966      Al  0.11351778  0.71516233  0.26447415     1.55600
O967        O  0.05642374  0.73810589  0.20130585    -0.76200
C968        C  0.11807010  0.66335335  0.23043955     0.99700
C969        C  0.16799413  0.77300561  0.23485302     0.94600
O970        O  0.14675877  0.78235521  0.22988848    -0.81500
O971        O  0.26989438  0.91343737  0.24672521    -0.81000
C972        C  0.35283406  0.96812125  0.15170666     0.98400
O973        O  0.35344301  0.97569426  0.17791773    -0.70100
O974        O  0.32435824  0.97648184  0.22728101    -0.73700
Al975      Al  0.33500453  0.94497107  0.20917491     1.49000
C976        C  0.30022680  0.98256182  0.22511173     0.93600
O977        O  0.23401020  0.91425168  0.17319423    -0.79900
O978        O  0.24957401  0.85535305  0.16806572    -0.73500
Al979      Al  0.25637438  0.91474242  0.20831720     1.90100
O980        O  0.26884833  0.91706035  0.13893786    -0.72500
O981        O  0.31398762  0.87552718  0.17351585    -0.72400
O982        O  0.33369283  0.93730412  0.14270242    -0.78000
O983        O  0.35569014  0.91928362  0.19623498    -0.76200
O984        O  0.29434437  0.91946564  0.19178960    -1.12400
O985        O  0.31990128  0.91648015  0.24227865    -0.71600
C986        C  0.29366213  0.91009113  0.25704213     0.99200
C987        C  0.24314619  0.91862503  0.14700598     0.95600
Al988      Al  0.29187093  0.89820072  0.15852962     1.55600
O989        O  0.27406627  0.96331260  0.21014112    -0.76200
C990        C  0.34163864  0.88849081  0.18729442     0.99700
C991        C  0.23307803  0.84534212  0.19166043     0.94600
O992        O  0.23521269  0.86674869  0.21000984    -0.81500
O993        O  0.13186617  0.73296908  0.07687210    -0.81000
C994        C  0.10735582  0.66191996  0.47501012     0.98400
O995        O  0.11600938  0.66051616  0.50040675    -0.70100
O996        O  0.14283505  0.68479713  0.05181868    -0.73700
Al997      Al  0.10083243  0.67380276  0.03369855     1.49000
C998        C  0.17345832  0.71035511  0.05075712     0.93600
O999        O  0.17158416  0.78119336  0.00554563    -0.79900
O1000       O  0.09731357  0.76160107  0.50190765    -0.73500
Al1001     Al  0.14839985  0.75281546  0.03914051     1.90100
O1002       O  0.14060471  0.74713132  0.46997134    -0.72500
O1003       O  0.05176186  0.69484247  0.50384506    -0.72400
O1004       O  0.09455078  0.68041509  0.46870854    -0.78000
O1005       O  0.05486510  0.65240040  0.01934283    -0.76200
O1006       O  0.11620610  0.71619789  0.01985869    -1.12400
O1007       O  0.08430247  0.68313060  0.06814788    -0.71600
C1008       C  0.10347704  0.70704678  0.08536888     0.99200
C1009       C  0.16659033  0.77418297  0.47937702     0.95600
Al1010     Al  0.09741073  0.72043544  0.48857560     1.55600
O1011       O  0.18064516  0.73780144  0.03773640    -0.76200
C1012       C  0.03784173  0.66641464  0.01327244     0.99700
C1013       C  0.10310406  0.77607471  0.02539726     0.94600
O1014       O  0.11993573  0.77090259  0.04385923    -0.81500
O1015       O  0.12444561  0.89258379  0.01660210    -0.81000
C1016       C  0.10544105  0.96304638  0.10815621     0.98400
O1017       O  0.09551257  0.96196738  0.08268105    -0.70100
O1018       O  0.14856132  0.98268493  0.04813840    -0.73700
Al1019     Al  0.10315398  0.94353851  0.04831716     1.49000
C1020       C  0.17178708  0.98292848  0.03293034     0.93600
O1021       O  0.17801713  0.93072285  0.08394603    -0.79900
O1022       O  0.08051268  0.85109569  0.08200655    -0.73500
Al1023     Al  0.14953626  0.91216073  0.05061165     1.90100
O1024       O  0.13594812  0.89953746  0.11495165    -0.72500
O1025       O  0.04965252  0.88668655  0.08967964    -0.72400
O1026       O  0.10931316  0.93908941  0.11781949    -0.78000
O1027       O  0.05644925  0.90777372  0.04615749    -0.76200
O1028       O  0.11599416  0.91723832  0.06586451    -1.12400
O1029       O  0.10818565  0.93035741  0.01016130    -0.71600
C1030       C  0.11345934  0.90718112  0.00059075     0.99200
C1031       C  0.16782906  0.91740805  0.10878176     0.95600
Al1032     Al  0.09545013  0.89580159  0.09863987     1.55600
O1033       O  0.17472033  0.95665505  0.03191155    -0.76200
C1034       C  0.03693147  0.88882636  0.06623260     0.99700
C1035       C  0.10029916  0.84329759  0.06912300     0.94600
O1036       O  0.13128341  0.86610776  0.06364221    -0.81500
O1037       O  0.38743305  0.62937473  0.26745035    -0.81000
C1038       C  0.39341384  0.56263599  0.36667506     0.98400
O1039       O  0.40137164  0.55746402  0.34173634    -0.70100
O1040       O  0.35222825  0.53910838  0.30431271    -0.73700
Al1041     Al  0.39948234  0.57529743  0.30470622     1.49000
C1042       C  0.33106783  0.54045196  0.28791500     0.93600
O1043       O  0.33020090  0.59926785  0.33369368    -0.79900
O1044       O  0.42972138  0.67468810  0.33004798    -0.73500
Al1045     Al  0.35999724  0.61385520  0.30081060     1.90100
O1046       O  0.37159098  0.63145872  0.36443361    -0.72500
O1047       O  0.45622774  0.63649078  0.34208601    -0.72400
O1048       O  0.39519971  0.59074583  0.37274644    -0.78000
O1049       O  0.44751925  0.60654094  0.30272369    -0.76200
O1050       O  0.39053015  0.60669478  0.31852839    -1.12400
O1051       O  0.39900321  0.58751167  0.26476260    -0.71600
C1052       C  0.39742690  0.61224019  0.25335587     0.99200
C1053       C  0.33979154  0.61379194  0.35805779     0.95600
Al1054     Al  0.41162270  0.63128421  0.34988036     1.55600
O1055       O  0.33242693  0.56871831  0.28410072    -0.76200
C1056       C  0.46790626  0.62881286  0.32035293     0.99700
C1057       C  0.41132111  0.68327607  0.31645996     0.94600
O1058       O  0.38032747  0.66116622  0.31089263    -0.81500
O1059       O  0.38655908  0.76580060  0.43816189    -0.81000
C1060       C  0.45304941  0.85815049  0.02708921     0.98400
O1061       O  0.45190849  0.86744260  0.00173350    -0.70100
O1062       O  0.47320047  0.83663588  0.47176496    -0.73700
Al1063     Al  0.43338786  0.84002275  0.47030372     1.49000
C1064       C  0.47525060  0.81350317  0.45834120     0.93600
O1065       O  0.42027624  0.75114662  0.50714818    -0.79900
O1066       O  0.34209849  0.76883355  0.00069741    -0.73500
Al1067     Al  0.40373206  0.76099520  0.47313936     1.90100
O1068       O  0.38759664  0.76131095  0.03544763    -0.72500
O1069       O  0.37886074  0.83658439  0.00783860    -0.72400
O1070       O  0.42910127  0.82933594  0.03689986    -0.78000
O1071       O  0.39678477  0.84817004  0.46668012    -0.76200
O1072       O  0.40737234  0.79941527  0.48779073    -1.12400
O1073       O  0.42280053  0.82171291  0.43216618    -0.71600
C1074       C  0.40107438  0.79216985  0.42228481     0.99200
C1075       C  0.40494931  0.74719308  0.03014207     0.95600
Al1076     Al  0.38619046  0.79915922  0.01778219     1.55600
O1077       O  0.44954807  0.78297605  0.45684913    -0.76200
C1078       C  0.37806800  0.84834602  0.48679072     0.99700
C1079       C  0.33384619  0.73872773  0.48939963     0.94600
O1080       O  0.35665898  0.73125817  0.48417776    -0.81500
C1081       C  0.99900674  0.86797745  0.06140314    -0.15600
C1082       C  0.48459776  0.88119475  0.04340503    -0.30800
H1083       H  0.98376433  0.84284826  0.07187042     0.13400
H1084       H  0.50123307  0.90695723  0.03426324     0.14000
C1085       C  0.09262019  0.80113872  0.03271719    -0.15600
C1086       C  0.08878078  0.80761553  0.06049895    -0.30800
H1087       H  0.09468797  0.81883306  0.01588671     0.13400
H1088       H  0.08597732  0.78966433  0.07736470     0.14000
C1089       C  0.22297118  0.92415312  0.12499258    -0.15600
C1090       C  0.19222828  0.92050143  0.13117044    -0.30800
H1091       H  0.23200387  0.92800099  0.10277488     0.13400
H1092       H  0.18247860  0.91477190  0.15318645     0.14000
C1093       C  0.30175316  0.01003342  0.24321794    -0.15600
C1094       C  0.30879959  0.51041300  0.26963305    -0.30800
H1095       H  0.30983936  0.03496450  0.23333407     0.13400
H1096       H  0.29704013  0.48462874  0.27906315     0.14000
C1097       C  0.20363735  0.79672863  0.22531080    -0.15600
C1098       C  0.20901697  0.80843018  0.19788714    -0.30800
H1099       H  0.22243799  0.81169071  0.24181181     0.13400
H1100       H  0.19051991  0.79310795  0.18130403     0.14000
C1101       C  0.09320058  0.70380290  0.11589980    -0.15600
C1102       C  0.11296353  0.72788835  0.13547400    -0.30800
H1103       H  0.06906608  0.68079340  0.12249040     0.13400
H1104       H  0.13669479  0.75130646  0.12882718     0.14000
C1105       C  0.01307351  0.63425679  0.28980406    -0.15600
C1106       C  0.50572986  0.64779298  0.31405364    -0.30800
H1107       H  0.99600374  0.60905112  0.28012811     0.13400
H1108       H  0.52205984  0.67323263  0.32357189     0.14000
C1109       C  0.29193427  0.70610356  0.45154021    -0.15600
C1110       C  0.29846579  0.71404304  0.47980583    -0.30800
H1111       H  0.31030665  0.72315173  0.43527262     0.13400
H1112       H  0.27978382  0.69751823  0.49611038     0.14000
C1113       C  0.28212021  0.60273376  0.37244414    -0.15600
C1114       C  0.31433228  0.61144141  0.37953119    -0.30800
H1115       H  0.27390241  0.59661290  0.35021194     0.13400
H1116       H  0.32321967  0.61966600  0.40137774     0.14000
C1117       C  0.11153983  0.64013710  0.45347803    -0.15600
C1118       C  0.14096907  0.65303911  0.43796735    -0.30800
H1119       H  0.09558419  0.61226581  0.45660781     0.13400
H1120       H  0.15806357  0.68102585  0.43654357     0.14000
C1121       C  0.18728443  0.50578501  0.48456770    -0.15600
C1122       C  0.19046444  0.01131406  0.01227009    -0.30800
H1123       H  0.17986205  0.48002632  0.47701765     0.13400
H1124       H  0.19816054  0.03724638  0.01959740     0.14000
C1125       C  0.13950617  0.50963956  0.14471854    -0.15600
C1126       C  0.11394430  0.99440376  0.12489983    -0.30800
H1127       H  0.15030674  0.49506754  0.15355675     0.13400
H1128       H  0.10389000  0.00972075  0.11609176     0.14000
C1129       C  0.21336753  0.61178757  0.04933913    -0.15600
C1130       C  0.18909293  0.60838469  0.03106519    -0.30800
H1131       H  0.23536047  0.61027327  0.04178922     0.13400
H1132       H  0.16759513  0.61082672  0.03847954     0.14000
C1133       C  0.19884394  0.70892430  0.06897354    -0.15600
C1134       C  0.19097770  0.70291982  0.09720803    -0.30800
H1135       H  0.21798050  0.70442745  0.05901446     0.13400
H1136       H  0.17004386  0.70555663  0.10589255     0.14000
C1137       C  0.12917634  0.62314344  0.20419049    -0.15600
C1138       C  0.13884006  0.64713322  0.22485702    -0.30800
H1139       H  0.10379819  0.61279310  0.19470174     0.13400
H1140       H  0.16385562  0.65793860  0.23503288     0.14000
C1141       C  0.09010551  0.81719391  0.29363621    -0.15600
C1142       C  0.09625031  0.79173846  0.29947114    -0.30800
H1143       H  0.08353568  0.82009285  0.27181530     0.13400
H1144       H  0.10431440  0.78973399  0.32095325     0.14000
C1145       C  0.50606458  0.82440995  0.44046957    -0.15600
C1146       C  0.00334814  0.81082501  0.40902493    -0.30800
H1147       H  0.52962907  0.84771693  0.44725297     0.13400
H1148       H  0.97768608  0.79850121  0.39975054     0.14000
C1149       C  0.14323479  0.51276007  0.35328300    -0.15600
C1150       C  0.12947369  0.53015996  0.36523953    -0.30800
H1151       H  0.16924632  0.02532605  0.35465614     0.13400
H1152       H  0.10154269  0.51782929  0.36622319     0.14000
C1153       C  0.10771214  0.92048467  0.45219484    -0.15600
C1154       C  0.10856253  0.89928526  0.47183289    -0.30800
H1155       H  0.11062610  0.94506526  0.45864969     0.13400
H1156       H  0.10626973  0.87497647  0.46537440     0.14000
C1157       C  0.42425365  0.71927752  0.30788254    -0.15600
C1158       C  0.41931700  0.72589694  0.28065232    -0.30800
H1159       H  0.42744205  0.73717882  0.32498202     0.13400
H1160       H  0.41604074  0.70797899  0.26354169     0.14000
C1161       C  0.29723594  0.71233105  0.22838023    -0.15600
C1162       C  0.29376998  0.71403609  0.19992400    -0.30800
H1163       H  0.27787500  0.68978002  0.24037492     0.13400
H1164       H  0.31211562  0.73750276  0.18832369     0.14000
C1165       C  0.01388753  0.89728918  0.29867590    -0.15600
C1166       C  0.49858695  0.87333405  0.27615552    -0.30800
H1167       H  0.99944432  0.90798144  0.30832827     0.13400
H1168       H  0.51157322  0.86064061  0.26746131     0.14000
C1169       C  0.40577319  0.81511760  0.37402841    -0.15600
C1170       C  0.39313984  0.78784593  0.39170236    -0.30800
H1171       H  0.42144145  0.84137944  0.38222101     0.13400
H1172       H  0.37600428  0.76174604  0.38364424     0.14000
C1173       C  0.38294993  0.87841051  0.21287776    -0.15600
C1174       C  0.35598209  0.86647130  0.19501996    -0.30800
H1175       H  0.39664852  0.90567732  0.21872381     0.13400
H1176       H  0.34092155  0.83898026  0.19004150     0.14000
C1177       C  0.21888709  0.92538633  0.38661464    -0.15600
C1178       C  0.20475698  0.92116926  0.36009442    -0.30800
H1179       H  0.20635521  0.92915981  0.40512953     0.13400
H1180       H  0.21804595  0.91908771  0.34130826     0.14000
C1181       C  0.19224304  0.79853467  0.45813222    -0.15600
C1182       C  0.21963020  0.82952876  0.46516832    -0.30800
H1183       H  0.18765957  0.79096905  0.43563070     0.13400
H1184       H  0.22454047  0.83717139  0.48762754     0.14000
C1185       C  0.29599515  0.80502622  0.35351426    -0.15600
C1186       C  0.30112797  0.81282731  0.32520128    -0.30800
H1187       H  0.30277621  0.78727975  0.36279243     0.13400
H1188       H  0.29662942  0.83266934  0.31689400     0.14000
C1189       C  0.37065765  0.89516188  0.46848918    -0.15600
C1190       C  0.35678554  0.86389548  0.48128754    -0.30800
H1191       H  0.39863705  0.91149160  0.46714887     0.13400
H1192       H  0.32888342  0.84673834  0.48215475     0.14000
C1193       C  0.38251578  0.50677563  0.38509005    -0.15600
C1194       C  0.37863304  0.53411246  0.38814608    -0.30800
H1195       H  0.40180498  0.00941477  0.37039789     0.13400
H1196       H  0.36108528  0.53367997  0.40448675     0.14000
C1197       C  0.29046151  0.89961059  0.28702325    -0.15600
C1198       C  0.31788774  0.91321679  0.30424712    -0.30800
H1199       H  0.26452919  0.88303504  0.29576417     0.13400
H1200       H  0.34353065  0.93175062  0.29587691     0.14000
C1201       C  0.30602793  0.60326787  0.11786847    -0.15600
C1202       C  0.29403249  0.60196455  0.14480581    -0.30800
H1203       H  0.29214632  0.60494414  0.09958280     0.13400
H1204       H  0.30675182  0.59895545  0.16329794     0.14000
C1205       C  0.40672689  0.72485728  0.05260635    -0.15600
C1206       C  0.41498255  0.70090093  0.04635735    -0.30800
H1207       H  0.39778081  0.72582793  0.07418132     0.13400
H1208       H  0.42206605  0.69875651  0.02436559     0.14000
C1209       C  0.48399969  0.61840175  0.04026394    -0.15600
C1210       C  0.00134330  0.64978078  0.02225778    -0.30800
H1211       H  0.49763415  0.60476798  0.04371117     0.13400
H1212       H  0.98896961  0.66490698  0.02056272     0.14000
C1213       C  0.99915974  0.70321517  0.18561205    -0.15600
C1214       C  0.50630140  0.70425127  0.15767431    -0.30800
H1215       H  0.97418573  0.68175057  0.19265956     0.13400
H1216       H  0.53173676  0.72204336  0.14856230     0.14000
C1217       C  0.36003181  0.50578532  0.10918117    -0.15600
C1218       C  0.37525928  0.99639459  0.13190932    -0.30800
H1219       H  0.33265286  0.49198467  0.10426405     0.13400
H1220       H  0.40174256  0.01352539  0.13882292     0.14000
C1221       C  0.40553571  0.59891174  0.20353863    -0.15600
C1222       C  0.40573843  0.62102690  0.22293098    -0.30800
H1223       H  0.40092817  0.57373924  0.21021060     0.13400
H1224       H  0.40974215  0.64588887  0.21596875     0.14000
O1225       O  0.41007055  0.63306129  0.66392744    -0.81000
C1226       C  0.45932854  0.61205899  0.56311439     0.98400
O1227       O  0.46903410  0.62120147  0.58862395    -0.70100
O1228       O  0.47135392  0.64692224  0.64013016    -0.73700
Al1229     Al  0.44007865  0.60474378  0.62101885     1.49000
C1230       C  0.47625450  0.67713694  0.63976929     0.93600
O1231       O  0.40493818  0.67368992  0.59306099    -0.79900
O1232       O  0.34936042  0.60193979  0.58563560    -0.73500
Al1233     Al  0.40820846  0.65021399  0.62662154     1.90100
O1234       O  0.41064655  0.64586279  0.55662733    -0.72500
O1235       O  0.36803187  0.55548132  0.58916952    -0.72400
O1236       O  0.42788580  0.59860971  0.55606093    -0.78000
O1237       O  0.41482284  0.55904243  0.60558678    -0.76200
O1238       O  0.41313053  0.61914344  0.60718446    -1.12400
O1239       O  0.41316438  0.58677935  0.65519296    -0.71600
C1240       C  0.40817329  0.60542475  0.67244891     0.99200
C1241       C  0.41031577  0.67174968  0.56647964     0.95600
Al1242     Al  0.39071423  0.60167227  0.57436602     1.55600
O1243       O  0.45619068  0.68358637  0.62644736    -0.76200
C1244       C  0.38291929  0.54139938  0.60049251     0.99700
C1245       C  0.33945335  0.60650482  0.60995781     0.94600
O1246       O  0.36046682  0.62058764  0.63007301    -0.81500
O1247       O  0.28707138  0.88243702  0.84409219    -0.81000
C1248       C  0.35396060  0.90453479  0.94531197     0.98400
O1249       O  0.35301651  0.89214982  0.92076925    -0.70100
O1250       O  0.33077485  0.86560933  0.86954239    -0.73700
Al1251     Al  0.34564896  0.90906095  0.88674704     1.49000
C1252       C  0.30328823  0.83654077  0.87080761     0.93600
O1253       O  0.23951099  0.84877239  0.91626162    -0.79900
O1254       O  0.26299919  0.92610515  0.91589490    -0.73500
Al1255     Al  0.26654063  0.86812332  0.88161436     1.90100
O1256       O  0.27253275  0.88239438  0.95113078    -0.72500
O1257       O  0.33178701  0.96703557  0.91072933    -0.72400
O1258       O  0.34051826  0.92302889  0.94996603    -0.78000
O1259       O  0.37187849  0.95579377  0.89988904    -0.76200
O1260       O  0.30437815  0.89983404  0.89946737    -1.12400
O1261       O  0.34045534  0.92605669  0.85142424    -0.71600
C1262       C  0.31531283  0.90821440  0.83491999     0.99200
C1263       C  0.24596440  0.85490275  0.94283732     0.95600
Al1264     Al  0.30230082  0.92311118  0.92962387     1.55600
O1265       O  0.27749293  0.83290275  0.88432435    -0.76200
C1266       C  0.36153530  0.97677442  0.90073375     0.99700
C1267       C  0.24597827  0.91671643  0.89264171     0.94600
O1268       O  0.24994861  0.89786479  0.87518618    -0.81500
O1269       O  0.38584475  0.78220767  0.82851522    -0.81000
C1270       C  0.39196896  0.85704738  0.72878071     0.98400
O1271       O  0.40256635  0.86849177  0.75350871    -0.70100
O1272       O  0.35077797  0.83505038  0.79049022    -0.73700
Al1273     Al  0.39742818  0.84617323  0.78912911     1.49000
C1274       C  0.32852556  0.81105233  0.80651314     0.93600
O1275       O  0.32392590  0.74595193  0.76658628    -0.79900
O1276       O  0.41916158  0.77324072  0.75597994    -0.73500
Al1277     Al  0.35667271  0.76664960  0.79621489     1.90100
O1278       O  0.35867701  0.76032238  0.72897421    -0.72500
O1279       O  0.44886054  0.84001437  0.74791098    -0.72400
O1280       O  0.38643921  0.82768267  0.72143582    -0.78000
O1281       O  0.44422082  0.86043906  0.78963052    -0.76200
O1282       O  0.38527546  0.80434169  0.77536857    -1.12400
O1283       O  0.39643529  0.83537772  0.82866872    -0.71600
C1284       C  0.39576429  0.81045807  0.84127702     0.99200
C1285       C  0.32888272  0.74222232  0.74045765     0.95600
Al1286     Al  0.40184880  0.80072481  0.74127813     1.55600
O1287       O  0.32976821  0.78428413  0.81152495    -0.76200
C1288       C  0.46263681  0.85795290  0.77041575     0.99700
C1289       C  0.40482926  0.74836311  0.77350527     0.94600
O1290       O  0.37754333  0.74126029  0.78659980    -0.81500
O1291       O  0.09730394  0.88119584  0.91178629    -0.81000
C1292       C  0.04355148  0.90098551  0.81370929     0.98400
O1293       O  0.03543798  0.89237525  0.83967888    -0.70100
O1294       O  0.03513689  0.86711022  0.89084661    -0.73700
Al1295     Al  0.06572311  0.90934528  0.87083893     1.49000
C1296       C  0.02975715  0.83672808  0.89003645     0.93600
O1297       O  0.10026334  0.84059996  0.83997479    -0.79900
O1298       O  0.15703863  0.91506950  0.83238054    -0.73500
Al1299     Al  0.09806337  0.86401884  0.87413420     1.90100
O1300       O  0.09538295  0.86954870  0.80432673    -0.72500
O1301       O  0.13601868  0.95975347  0.83623159    -0.72400
O1302       O  0.07476703  0.91430255  0.80501416    -0.78000
O1303       O  0.08983045  0.95560908  0.85528015    -0.76200
O1304       O  0.09256221  0.89529911  0.85549462    -1.12400
O1305       O  0.09384992  0.92740254  0.90359648    -0.71600
C1306       C  0.09933385  0.90888651  0.92038074     0.99200
C1307       C  0.09514369  0.84325609  0.81359312     0.95600
Al1308     Al  0.11409113  0.91329745  0.82210674     1.55600
O1309       O  0.04970261  0.83032067  0.87591564    -0.76200
C1310       C  0.12108109  0.97391551  0.84760879     0.99700
C1311       C  0.16747226  0.90983739  0.85608340     0.94600
O1312       O  0.14632822  0.89350171  0.87604514    -0.81500
O1313       O  0.23697327  0.62672891  0.59191464    -0.81000
C1314       C  0.15495860  0.61776943  0.68697580     0.98400
O1315       O  0.14505482  0.60557341  0.66226481    -0.70100
O1316       O  0.17827271  0.65818531  0.62662229    -0.73700
Al1317     Al  0.16969203  0.61246182  0.62744811     1.49000
C1318       C  0.20187384  0.68128323  0.61095178     0.93600
O1319       O  0.26548299  0.68998507  0.65316173    -0.79900
O1320       O  0.24184280  0.59403615  0.66280450    -0.73500
Al1321     Al  0.24875605  0.65678092  0.62342631     1.90100
O1322       O  0.25288092  0.65441664  0.68984570    -0.72500
O1323       O  0.17448586  0.56300146  0.67045855    -0.72400
O1324       O  0.18450937  0.62543907  0.69558502    -0.78000
O1325       O  0.15775209  0.56612922  0.62684371    -0.76200
O1326       O  0.21067601  0.62664173  0.64289291    -1.12400
O1327       O  0.18385406  0.61512265  0.58829001    -0.71600
C1328       C  0.21007836  0.61627479  0.57752807     0.99200
C1329       C  0.26988416  0.68472884  0.67895926     0.95600
Al1330     Al  0.21320108  0.61056788  0.67713763     1.55600
O1331       O  0.22948994  0.68154059  0.60600509    -0.76200
C1332       C  0.15776561  0.54831341  0.64768798     0.99700
C1333       C  0.26808341  0.61018928  0.64667994     0.94600
O1334       O  0.27579528  0.63859271  0.63526289    -0.81500
O1335       O  0.21550832  0.59766780  0.99201038    -0.81000
C1336       C  0.14728107  0.55518271  0.89074837     0.98400
O1337       O  0.14395501  0.54475467  0.91636831    -0.70100
O1338       O  0.16550423  0.53886781  0.96750130    -0.73700
Al1339     Al  0.15741830  0.57227340  0.94939297     1.49000
C1340       C  0.18998563  0.53309310  0.96631239     0.93600
O1341       O  0.26345735  0.60722670  0.92145102    -0.79900
O1342       O  0.25017092  0.66523018  0.91767426    -0.73500
Al1343     Al  0.23536405  0.60161647  0.95483768     1.90100
O1344       O  0.23212819  0.60589688  0.88530179    -0.72500
O1345       O  0.18464369  0.64591534  0.91880932    -0.72400
O1346       O  0.16720590  0.58706873  0.88418381    -0.78000
O1347       O  0.13887666  0.59944172  0.93546107    -0.76200
O1348       O  0.20032019  0.59926356  0.93583505    -1.12400
O1349       O  0.16774383  0.59782203  0.98389022    -0.71600
C1350       C  0.18925555  0.59847404  0.49868497     0.99200
C1351       C  0.25753833  0.60503273  0.89474980     0.95600
Al1352     Al  0.20779238  0.62404964  0.90396256     1.55600
O1353       O  0.21732358  0.55317793  0.95254346    -0.76200
C1354       C  0.15475985  0.63141968  0.92956116     0.99700
C1355       C  0.26390405  0.67245835  0.94241941     0.97000
O1356       O  0.25632585  0.64901583  0.96052763    -0.81500
O1357       O  0.11778091  0.74811082  0.68299174    -0.81000
C1358       C  0.04533265  0.65665132  0.77438851     0.98400
O1359       O  0.04687020  0.64737186  0.74903392    -0.70100
O1360       O  0.02777929  0.68118861  0.71602788    -0.73700
Al1361     Al  0.06570420  0.67456551  0.71480697     1.49000
C1362       C  0.02835595  0.70626444  0.70365602     0.93600
O1363       O  0.08363110  0.76476997  0.75230447    -0.79900
O1364       O  0.15888883  0.74423160  0.74829785    -0.73500
Al1365     Al  0.10010971  0.75404623  0.71824842     1.90100
O1366       O  0.11285982  0.75254037  0.78252865    -0.72500
O1367       O  0.12043189  0.67649771  0.75531784    -0.72400
O1368       O  0.06991705  0.68484404  0.78428263    -0.78000
O1369       O  0.10056119  0.66379639  0.71143472    -0.76200
O1370       O  0.09315102  0.71428979  0.73271537    -1.12400
O1371       O  0.07858125  0.69319021  0.67643166    -0.71600
C1372       C  0.10252555  0.72207700  0.66677801     0.99200
C1373       C  0.09680467  0.76779480  0.77683767     0.95600
Al1374     Al  0.11382552  0.71441132  0.76518715     1.55600
O1375       O  0.05569304  0.73549119  0.70189812    -0.76200
C1376       C  0.11897906  0.66290265  0.73116402     0.99700
C1377       C  0.16779231  0.77222858  0.73511862     0.94600
O1378       O  0.14624341  0.78115885  0.73007475    -0.81500
O1379       O  0.27098500  0.91462707  0.74684905    -0.81000
C1380       C  0.35359677  0.96656605  0.65138251     0.98400
O1381       O  0.35397766  0.97489387  0.67733973    -0.70100
O1382       O  0.32540146  0.97685808  0.72656511    -0.73700
Al1383     Al  0.33560043  0.94479843  0.70888250     1.49000
C1384       C  0.30134590  0.98307972  0.72445366     0.93600
O1385       O  0.23437645  0.91352561  0.67345434    -0.79900
O1386       O  0.24882937  0.85538416  0.66834794    -0.73500
Al1387     Al  0.25711749  0.91495194  0.70852619     1.90100
O1388       O  0.26968038  0.91732572  0.63916434    -0.72500
O1389       O  0.31311514  0.87428445  0.67416413    -0.72400
O1390       O  0.33419974  0.93561853  0.64282174    -0.78000
O1391       O  0.35558234  0.91843273  0.69607267    -0.76200
O1392       O  0.29481362  0.91930824  0.69187199    -1.12400
O1393       O  0.32061554  0.91692023  0.74225720    -0.71600
C1394       C  0.29468565  0.91121112  0.75712677     0.99200
C1395       C  0.24365985  0.91831375  0.64730038     0.95600
Al1396     Al  0.29181707  0.89754734  0.65881543     1.55600
O1397       O  0.27497184  0.96370699  0.70966881    -0.76200
C1398       C  0.34126540  0.88754555  0.68727155     0.99700
C1399       C  0.23296908  0.84541794  0.69222046     0.94600
O1400       O  0.23610381  0.86689456  0.71093757    -0.81500
O1401       O  0.13193204  0.73147397  0.57752691    -0.81000
C1402       C  0.10782074  0.66244441  0.97534160     0.98400
O1403       O  0.11582542  0.66090605  0.00095349    -0.70100
O1404       O  0.14378841  0.68421458  0.55091132    -0.73700
Al1405     Al  0.10113628  0.67272065  0.53377649     1.49000
C1406       C  0.17417261  0.71017750  0.54957517     0.93600
O1407       O  0.16991878  0.78062015  0.50612029    -0.79900
O1408       O  0.09788959  0.76234248  0.00065356    -0.73500
Al1409     Al  0.14762255  0.75184827  0.53979473     1.90100
O1410       O  0.14195397  0.74837414  0.96924989    -0.72500
O1411       O  0.05266141  0.69605830  0.00206802    -0.72400
O1412       O  0.09610149  0.68164861  0.96827637    -0.78000
O1413       O  0.05464239  0.65114653  0.52022500    -0.76200
O1414       O  0.11564980  0.71512828  0.52049634    -1.12400
O1415       O  0.08496822  0.68116824  0.56878923    -0.71600
C1416       C  0.10390916  0.70509176  0.58605947     0.99200
C1417       C  0.16822969  0.77504252  0.97878524     0.95600
Al1418     Al  0.09852977  0.72155521  0.98755634     1.55600
O1419       O  0.18052632  0.73783209  0.53744630    -0.76200
C1420       C  0.03731252  0.66511843  0.51498370     0.99700
C1421       C  0.10251452  0.77525833  0.52671032     0.94600
O1422       O  0.11848094  0.76915559  0.54536445    -0.81500
O1423       O  0.12474999  0.89367887  0.51816036    -0.81000
C1424       C  0.10604214  0.96355726  0.61042859     0.98400
O1425       O  0.09750330  0.96376518  0.58471168    -0.70100
O1426       O  0.15051588  0.98403869  0.55040395    -0.73700
Al1427     Al  0.10478806  0.94547005  0.55022273     1.49000
C1428       C  0.17338750  0.98402926  0.53491701     0.93600
O1429       O  0.17840881  0.93090135  0.58528497    -0.79900
O1430       O  0.08079800  0.85168205  0.58291741    -0.73500
Al1431     Al  0.15001671  0.91283454  0.55202960     1.90100
O1432       O  0.13622791  0.89977199  0.61629548    -0.72500
O1433       O  0.05019301  0.88764504  0.59069159    -0.72400
O1434       O  0.10932731  0.93911849  0.61978304    -0.78000
O1435       O  0.05792878  0.91074966  0.54785047    -0.76200
O1436       O  0.11674656  0.91825790  0.56746075    -1.12400
O1437       O  0.10952497  0.93230142  0.51185680    -0.71600
C1438       C  0.11416153  0.90869100  0.50223648     0.99200
C1439       C  0.16813200  0.91740316  0.61003823     0.95600
Al1440     Al  0.09576886  0.89628847  0.59996400     1.55600
O1441       O  0.17568171  0.95740816  0.53347301    -0.76200
C1442       C  0.03801422  0.89141410  0.56754013     0.99700
C1443       C  0.10055778  0.84382152  0.57005854     0.94600
O1444       O  0.13156269  0.86662400  0.56473205    -0.81500
O1445       O  0.38358557  0.62778769  0.76666401    -0.81000
C1446       C  0.39063110  0.56378512  0.86719609     0.98400
O1447       O  0.39927290  0.55841444  0.84259060    -0.70100
O1448       O  0.34952623  0.53942654  0.80595758    -0.73700
Al1449     Al  0.39666374  0.57515776  0.80511901     1.49000
C1450       C  0.32797298  0.53997149  0.78954611     0.93600
O1451       O  0.32846464  0.60044726  0.83410148    -0.79900
O1452       O  0.42826737  0.67493976  0.82865100    -0.73500
Al1453     Al  0.35729800  0.61376292  0.80066504     1.90100
O1454       O  0.37065678  0.63397277  0.86367403    -0.72500
O1455       O  0.45380319  0.63604925  0.84181564    -0.72400
O1456       O  0.39240377  0.59199836  0.87272410    -0.78000
O1457       O  0.44473445  0.60628740  0.80227966    -0.76200
O1458       O  0.38812875  0.60700662  0.81829906    -1.12400
O1459       O  0.39520588  0.58592959  0.76483058    -0.71600
C1460       C  0.39311508  0.61007861  0.75283898     0.99200
C1461       C  0.33872384  0.61585409  0.85805232     0.95600
Al1462     Al  0.40971427  0.63214707  0.84928193     1.55600
O1463       O  0.32891723  0.56794599  0.78509655    -0.76200
C1464       C  0.46529773  0.62825416  0.82002733     0.99700
C1465       C  0.40987676  0.68354516  0.81505034     0.94600
O1466       O  0.37869914  0.66159667  0.80968392    -0.81500
O1467       O  0.38656083  0.76587149  0.93600732    -0.81000
C1468       C  0.45174288  0.85724907  0.52955826     0.98400
O1469       O  0.44932278  0.86683459  0.50467841    -0.70100
O1470       O  0.47402636  0.83552516  0.96906111    -0.73700
Al1471     Al  0.43503787  0.84034759  0.96754631     1.49000
C1472       C  0.47533694  0.81144835  0.95657313     0.93600
O1473       O  0.41920621  0.75101498  0.00577148    -0.79900
O1474       O  0.34118754  0.76606800  0.50299680    -0.73500
Al1475     Al  0.40325289  0.76099193  0.97136021     1.90100
O1476       O  0.38782891  0.75979913  0.53723792    -0.72500
O1477       O  0.37634063  0.83401411  0.51067323    -0.72400
O1478       O  0.42828098  0.82811198  0.53937537    -0.78000
O1479       O  0.39935017  0.85003312  0.96381384    -0.76200
O1480       O  0.40816922  0.80020475  0.98546241    -1.12400
O1481       O  0.42371401  0.82149916  0.92952003    -0.71600
C1482       C  0.40144778  0.79201097  0.91985832     0.99200
C1483       C  0.40568307  0.74633311  0.53146186     0.95600
Al1484     Al  0.38516141  0.79724328  0.52021664     1.55600
O1485       O  0.44896420  0.78135259  0.95517772    -0.76200
C1486       C  0.38082057  0.85072677  0.98387022     0.99700
C1487       C  0.33393235  0.74104651  0.98754064     0.94600
O1488       O  0.35605929  0.73260228  0.98249902    -0.81500
C1489       C  0.00021454  0.87184822  0.56233500    -0.15600
C1490       C  0.48416800  0.88043519  0.54500822    -0.30800
H1491       H  0.98481500  0.84542453  0.57034625     0.13400
H1492       H  0.50011487  0.90634626  0.53593630     0.14000
C1493       C  0.09337818  0.80146704  0.53376536    -0.15600
C1494       C  0.08901296  0.80805672  0.56140646    -0.30800
H1495       H  0.09662125  0.81957581  0.51687471     0.13400
H1496       H  0.08489405  0.78967874  0.57833484     0.14000
C1497       C  0.22321743  0.92367230  0.62552484    -0.15600
C1498       C  0.19256037  0.92002270  0.63211755    -0.30800
H1499       H  0.23206826  0.92767846  0.60325650     0.13400
H1500       H  0.18302184  0.91421899  0.65418689     0.14000
C1501       C  0.30318180  0.01069659  0.74267355    -0.15600
C1502       C  0.30599450  0.50900395  0.77219655    -0.30800
H1503       H  0.30964833  0.03514340  0.73270902     0.13400
H1504       H  0.30150171  0.48449303  0.78067018     0.14000
C1505       C  0.20331851  0.79621961  0.72539568    -0.15600
C1506       C  0.20832056  0.80858978  0.69821081    -0.30800
H1507       H  0.22259800  0.81039086  0.74178463     0.13400
H1508       H  0.18935562  0.79388932  0.68174058     0.14000
C1509       C  0.09361016  0.70139802  0.61663171    -0.15600
C1510       C  0.11256241  0.72591748  0.63614773    -0.30800
H1511       H  0.06998675  0.67783223  0.62325031     0.13400
H1512       H  0.13577523  0.74982529  0.62943525     0.14000
C1513       C  0.01280845  0.63425947  0.79067157    -0.15600
C1514       C  0.50313492  0.64671020  0.81391114    -0.30800
H1515       H  0.99525946  0.60920344  0.78098074     0.13400
H1516       H  0.51960117  0.67234628  0.82303706     0.14000
C1517       C  0.29159183  0.70781102  0.95031651    -0.15600
C1518       C  0.29831795  0.71694419  0.97833257    -0.30800
H1519       H  0.31009506  0.72384987  0.93371096     0.13400
H1520       H  0.27952058  0.70144764  0.99494603     0.14000
C1521       C  0.28085287  0.60256694  0.87381313    -0.15600
C1522       C  0.31393755  0.61395522  0.87991828    -0.30800
H1523       H  0.27145806  0.59408451  0.85211396     0.13400
H1524       H  0.32379898  0.62437540  0.90113900     0.14000
C1525       C  0.11151681  0.64004937  0.95439486    -0.15600
C1526       C  0.13988267  0.65285079  0.93761927    -0.30800
H1527       H  0.09685378  0.61244093  0.95910514     0.13400
H1528       H  0.15603426  0.68076448  0.93465636     0.14000
C1529       C  0.18849576  0.50680751  0.98577090    -0.15600
C1530       C  0.19223585  0.01255302  0.51439482    -0.30800
H1531       H  0.17883416  0.48078709  0.97762379     0.13400
H1532       H  0.20011343  0.03849411  0.52184356     0.14000
C1533       C  0.13872868  0.50996793  0.64417129    -0.15600
C1534       C  0.11363738  0.99406951  0.62792112    -0.30800
H1535       H  0.14946797  0.49544528  0.65323088     0.13400
H1536       H  0.10310412  0.00918077  0.61961019     0.14000
C1537       C  0.21024265  0.60710317  0.54759070    -0.15600
C1538       C  0.18676650  0.60498702  0.52907894    -0.30800
H1539       H  0.23147181  0.60415878  0.54029291     0.13400
H1540       H  0.16599739  0.60875965  0.53621215     0.14000
C1541       C  0.20038252  0.70889877  0.56663367    -0.15600
C1542       C  0.19434870  0.70447910  0.59516508    -0.30800
H1543       H  0.21741130  0.70193967  0.55599074     0.13400
H1544       H  0.17493422  0.70897580  0.60467149     0.14000
C1545       C  0.13101765  0.62422046  0.70370536    -0.15600
C1546       C  0.14026842  0.64732874  0.72508385    -0.30800
H1547       H  0.10557991  0.61387251  0.69431827     0.13400
H1548       H  0.16527288  0.65810068  0.73528933     0.14000
C1549       C  0.08993304  0.81624298  0.79261630    -0.15600
C1550       C  0.09557426  0.79062262  0.79909748    -0.30800
H1551       H  0.08400602  0.81921050  0.77059093     0.13400
H1552       H  0.10316598  0.78865806  0.82078697     0.14000
C1553       C  0.50661419  0.82071827  0.93993531    -0.15600
C1554       C  0.00227753  0.81044940  0.90880616    -0.30800
H1555       H  0.53049301  0.84307750  0.94752926     0.13400
H1556       H  0.97826516  0.79067675  0.89915187     0.14000
C1557       C  0.14046158  0.51299029  0.85440495    -0.15600
C1558       C  0.12664110  0.52873361  0.86907786    -0.30800
H1559       H  0.16904497  0.02448043  0.85382976     0.13400
H1560       H  0.09880765  0.51507576  0.87221741     0.14000
C1561       C  0.10607310  0.91868856  0.95069584    -0.15600
C1562       C  0.10801960  0.89788466  0.97014127    -0.30800
H1563       H  0.10823621  0.94289107  0.95732974     0.13400
H1564       H  0.10657066  0.87402025  0.96351583     0.14000
C1565       C  0.42315296  0.71946887  0.80619192    -0.15600
C1566       C  0.41859368  0.72584751  0.77883305    -0.30800
H1567       H  0.42650840  0.73767842  0.82306890     0.13400
H1568       H  0.41483468  0.70743132  0.76201274     0.14000
C1569       C  0.29933932  0.71448868  0.72417550    -0.15600
C1570       C  0.29730577  0.71443720  0.69539655    -0.30800
H1571       H  0.27863476  0.69321140  0.73641486     0.13400
H1572       H  0.31691321  0.73669336  0.68327816     0.14000
C1573       C  0.01558241  0.89766944  0.79519696    -0.15600
C1574       C  0.50036404  0.87432121  0.77604436    -0.30800
H1575       H  0.00127088  0.90876568  0.80437471     0.13400
H1576       H  0.51425466  0.86315034  0.76621540     0.14000
C1577       C  0.40570480  0.81474367  0.87145213    -0.15600
C1578       C  0.39320983  0.78752223  0.88921978    -0.30800
H1579       H  0.42150934  0.84098827  0.87965396     0.13400
H1580       H  0.37592895  0.76142352  0.88123558     0.14000
C1581       C  0.38502206  0.87889121  0.70991588    -0.15600
C1582       C  0.35614993  0.86591431  0.69426991    -0.30800
H1583       H  0.39959510  0.90652687  0.71445335     0.13400
H1584       H  0.34038884  0.83811935  0.69073726     0.14000
C1585       C  0.21803368  0.92395930  0.88672588    -0.15600
C1586       C  0.20401595  0.91955157  0.86013896    -0.30800
H1587       H  0.20514278  0.92730300  0.90519922     0.13400
H1588       H  0.21771521  0.91796754  0.84143245     0.14000
C1589       C  0.19422775  0.79933453  0.95766169    -0.15600
C1590       C  0.22196030  0.83007171  0.96483779    -0.30800
H1591       H  0.18949820  0.79206272  0.93511907     0.13400
H1592       H  0.22692192  0.83749315  0.98732587     0.14000
C1593       C  0.30066315  0.80954782  0.85174028    -0.15600
C1594       C  0.30488946  0.81726150  0.82339236    -0.30800
H1595       H  0.30703661  0.79130911  0.86061338     0.13400
H1596       H  0.30086450  0.83757504  0.81550917     0.14000
C1597       C  0.37300985  0.89808787  0.96745217    -0.15600
C1598       C  0.35932283  0.86590846  0.97827246    -0.30800
H1599       H  0.40088945  0.91542131  0.96754920     0.13400
H1600       H  0.33153986  0.84800994  0.97741541     0.14000
C1601       C  0.38034754  0.50885717  0.88748190    -0.15600
C1602       C  0.37522553  0.53552697  0.88890442    -0.30800
H1603       H  0.40327727  0.01314898  0.87191682     0.13400
H1604       H  0.35655285  0.53482325  0.90417243     0.14000
C1605       C  0.29182955  0.90149733  0.78716133    -0.15600
C1606       C  0.31926160  0.91663787  0.80431393    -0.30800
H1607       H  0.26606940  0.88411677  0.79590736     0.13400
H1608       H  0.34457968  0.93595378  0.79586457     0.14000
C1609       C  0.30417896  0.59941439  0.61449730    -0.15600
C1610       C  0.29147391  0.59735443  0.64130276    -0.30800
H1611       H  0.29138906  0.60260708  0.59612234     0.13400
H1612       H  0.30307137  0.59268578  0.65977110     0.14000
C1613       C  0.40747104  0.72339850  0.55320821    -0.15600
C1614       C  0.41493500  0.69907038  0.54609441    -0.30800
H1615       H  0.39877425  0.72402592  0.57496223     0.13400
H1616       H  0.42181495  0.69726683  0.52395026     0.14000
C1617       C  0.48574295  0.61698442  0.54208723    -0.15600
C1618       C  0.00078882  0.64808424  0.52441942    -0.30800
H1619       H  0.50091477  0.60548347  0.54762010     0.13400
H1620       H  0.98734344  0.66198894  0.52136358     0.14000
C1621       C  0.99851125  0.69927335  0.68685972    -0.15600
C1622       C  0.50199262  0.70261452  0.65930155    -0.30800
H1623       H  0.97343098  0.67870211  0.69469734     0.13400
H1624       H  0.52706500  0.72206880  0.65056798     0.14000
C1625       C  0.36267949  0.50517973  0.61061589    -0.15600
C1626       C  0.37623734  0.99416453  0.63128088    -0.30800
H1627       H  0.33553958  0.48952734  0.60491594     0.13400
H1628       H  0.40296247  0.01073024  0.63782058     0.14000
C1629       C  0.40163468  0.59593834  0.70314395    -0.15600
C1630       C  0.40062031  0.61782367  0.72214578    -0.30800
H1631       H  0.39807959  0.57130728  0.71020834     0.13400
H1632       H  0.40373470  0.64216775  0.71472708     0.14000
O1633       O  0.91053681  0.13426632  0.16303482    -0.81000
C1634       C  0.95697471  0.11306656  0.06099792     0.98400
O1635       O  0.96705294  0.12147278  0.08651427    -0.70100
O1636       O  0.97092837  0.14706028  0.13833382    -0.73700
Al1637     Al  0.93860506  0.10510050  0.11920280     1.49000
C1638       C  0.97656417  0.17756625  0.13805927     0.93600
O1639       O  0.90499213  0.17598645  0.09284291    -0.79900
O1640       O  0.84805728  0.10402816  0.08595246    -0.73500
Al1641     Al  0.90835537  0.15194696  0.12604965     1.90100
O1642       O  0.90892601  0.14743921  0.05612936    -0.72500
O1643       O  0.86584261  0.05697711  0.08800839    -0.72400
O1644       O  0.92543061  0.09993571  0.05437349    -0.78000
O1645       O  0.91225949  0.05925346  0.10376138    -0.76200
O1646       O  0.91201235  0.12034388  0.10614973    -1.12400
O1647       O  0.91218301  0.08731248  0.15347396    -0.71600
C1648       C  0.90801801  0.10617017  0.17108964     0.99200
C1649       C  0.90956015  0.17370521  0.06614727     0.95600
Al1650     Al  0.88885234  0.10328942  0.07361644     1.55600
O1651       O  0.95655728  0.18451191  0.12524359    -0.76200
C1652       C  0.88033402  0.04210691  0.09855457     0.99700
C1653       C  0.83889314  0.10891778  0.11049994     0.94600
O1654       O  0.86051375  0.12324026  0.13018649    -0.81500
O1655       O  0.77820998  0.37795425  0.34125655    -0.81000
C1656       C  0.84740128  0.39713894  0.44134013     0.98400
O1657       O  0.84513283  0.38429784  0.41670247    -0.70100
O1658       O  0.82130303  0.35919671  0.36529600    -0.73700
Al1659     Al  0.83763773  0.40228655  0.38315246     1.49000
C1660       C  0.79361777  0.33036626  0.36666452     0.93600
O1661       O  0.73248200  0.34370917  0.41458384    -0.79900
O1662       O  0.75871232  0.42299269  0.41454450    -0.73500
Al1663     Al  0.75851684  0.36311059  0.37937907     1.90100
O1664       O  0.76648166  0.37765077  0.44892073    -0.72500
O1665       O  0.82707721  0.46159549  0.40828535    -0.72400
O1666       O  0.83446636  0.41594355  0.44667964    -0.78000
O1667       O  0.86554149  0.44847781  0.39673462    -0.76200
O1668       O  0.79714839  0.39407492  0.39682805    -1.12400
O1669       O  0.83210187  0.42057138  0.34848762    -0.71600
C1670       C  0.80645242  0.40395176  0.33214859     0.99200
C1671       C  0.73965452  0.35015433  0.44105963     0.95600
Al1672     Al  0.79683521  0.41789671  0.42731354     1.55600
O1673       O  0.76827682  0.32697429  0.38070705    -0.76200
C1674       C  0.85627240  0.47024865  0.39766692     0.99700
C1675       C  0.74109384  0.41394094  0.39167789     0.94600
O1676       O  0.74284870  0.39361338  0.37439099    -0.81500
O1677       O  0.88450724  0.28284430  0.32964238    -0.81000
C1678       C  0.89008750  0.35851700  0.23029671     0.98400
O1679       O  0.90117573  0.36923136  0.25501929    -0.70100
O1680       O  0.84904035  0.33482626  0.29154057    -0.73700
Al1681     Al  0.89582711  0.34622845  0.29015217     1.49000
C1682       C  0.82567213  0.30948996  0.30586832     0.93600
O1683       O  0.82303302  0.24445737  0.26810344    -0.79900
O1684       O  0.91613910  0.27225384  0.25472824    -0.73500
Al1685     Al  0.85571024  0.26666849  0.29730370     1.90100
O1686       O  0.85585340  0.26154492  0.22921799    -0.72500
O1687       O  0.94665335  0.33974509  0.24832116    -0.72400
O1688       O  0.88427390  0.32921472  0.22232699    -0.78000
O1689       O  0.94283306  0.36043291  0.29031276    -0.76200
O1690       O  0.88358388  0.30440594  0.27611278    -1.12400
O1691       O  0.89474452  0.33570905  0.32967433    -0.71600
C1692       C  0.89411222  0.31093943  0.34238079     0.99200
C1693       C  0.82693181  0.24200734  0.24158391     0.95600
Al1694     Al  0.89937005  0.30111400  0.24145542     1.55600
O1695       O  0.82765435  0.28327028  0.31146712    -0.76200
C1696       C  0.96085028  0.35771078  0.27076203     0.99700
C1697       C  0.90348367  0.24852745  0.27345133     0.94600
O1698       O  0.87786194  0.24272214  0.28840507    -0.81500
O1699       O  0.59563956  0.38279497  0.41206004    -0.81000
C1700       C  0.54133867  0.40116240  0.31389330     0.98400
O1701       O  0.53355044  0.39336620  0.34003176    -0.70100
O1702       O  0.53375172  0.36878895  0.39145091    -0.73700
Al1703     Al  0.56423379  0.41066772  0.37087040     1.49000
C1704       C  0.52843266  0.33839841  0.39093988     0.93600
O1705       O  0.59824255  0.34094040  0.34076466    -0.79900
O1706       O  0.65416241  0.41447950  0.33172665    -0.73500
Al1707     Al  0.59615245  0.36508416  0.37453960     1.90100
O1708       O  0.59204804  0.36850571  0.30473690    -0.72500
O1709       O  0.63395287  0.45968646  0.33493445    -0.72400
O1710       O  0.57228014  0.41386868  0.30484857    -0.78000
O1711       O  0.58845044  0.45647683  0.35460617    -0.76200
O1712       O  0.59052010  0.39597357  0.35550275    -1.12400
O1713       O  0.59288619  0.42927622  0.40350338    -0.71600
C1714       C  0.59791812  0.41063296  0.42054575     0.99200
C1715       C  0.59256031  0.34273924  0.31436739     0.95600
Al1716     Al  0.61143502  0.41286533  0.32169873     1.55600
O1717       O  0.54793885  0.33164960  0.37655170    -0.76200
C1718       C  0.61955924  0.47431293  0.34646667     0.99700
C1719       C  0.66490517  0.41016164  0.35559921     0.94600
O1720       O  0.64418158  0.39471592  0.37601147    -0.81500
O1721       O  0.73489398  0.12686398  0.09442921    -0.81000
C1722       C  0.65318631  0.11604561  0.18991486     0.98400
O1723       O  0.64276173  0.10357333  0.16532774    -0.70100
O1724       O  0.67464060  0.15623960  0.12958900    -0.73700
Al1725     Al  0.66707115  0.11088761  0.13014878     1.49000
C1726       C  0.69779196  0.17963401  0.11382701     0.93600
O1727       O  0.76152482  0.18948732  0.15564083    -0.79900
O1728       O  0.74072889  0.09395532  0.16427109    -0.73500
Al1729     Al  0.74592744  0.15662938  0.12588581     1.90100
O1730       O  0.75106558  0.15379752  0.19183759    -0.72500
O1731       O  0.67324941  0.06180770  0.17268659    -0.72400
O1732       O  0.68287574  0.12383711  0.19815813    -0.78000
O1733       O  0.65597845  0.06490372  0.12930500    -0.76200
O1734       O  0.70829226  0.12569813  0.14529962    -1.12400
O1735       O  0.68129809  0.11396709  0.09078025    -0.71600
C1736       C  0.70798500  0.11599310  0.07999448     0.99200
C1737       C  0.76686945  0.18425913  0.18113397     0.95600
Al1738     Al  0.71164467  0.10963536  0.17926385     1.55600
O1739       O  0.72563860  0.18048779  0.10857395    -0.76200
C1740       C  0.65643160  0.04710758  0.14995287     0.99700
C1741       C  0.76712232  0.11117656  0.14848666     0.94600
O1742       O  0.77414929  0.13966070  0.13763625    -0.81500
O1743       O  0.71486839  0.09627927  0.49076677    -0.81000
C1744       C  0.64699244  0.05486907  0.38954745     0.98400
O1745       O  0.64392945  0.04366335  0.41489063    -0.70100
O1746       O  0.66517133  0.03714551  0.46612670    -0.73700
Al1747     Al  0.65652715  0.07036706  0.44833128     1.49000
C1748       C  0.68992766  0.03182799  0.46481621     0.93600
O1749       O  0.76210731  0.10610657  0.41949746    -0.79900
O1750       O  0.74839040  0.16508965  0.41761609    -0.73500
Al1751     Al  0.73463664  0.10044782  0.45337212     1.90100
O1752       O  0.73124749  0.10700229  0.38384945    -0.72500
O1753       O  0.68260633  0.14463291  0.41981128    -0.72400
O1754       O  0.66593291  0.08708169  0.38366043    -0.78000
O1755       O  0.63704164  0.09702526  0.43502822    -0.76200
O1756       O  0.69938098  0.09823314  0.43489736    -1.12400
O1757       O  0.66633198  0.09519901  0.48304116    -0.71600
C1758       C  0.68859868  0.09890557  0.00088081     0.99200
C1759       C  0.75620673  0.10494167  0.39282309     0.95600
Al1760     Al  0.70633445  0.12390448  0.40365680     1.55600
O1761       O  0.71691467  0.05209454  0.45077741    -0.76200
C1762       C  0.65261174  0.12929258  0.43042221     0.99700
C1763       C  0.76260815  0.17164208  0.44211866     0.97000
O1764       O  0.75574482  0.14768808  0.45944617    -0.81500
O1765       O  0.62019972  0.24962438  0.18499724    -0.81000
C1766       C  0.54563917  0.15634248  0.27473875     0.98400
O1767       O  0.54826143  0.14753674  0.24948919    -0.70100
O1768       O  0.52920639  0.18169940  0.21679233    -0.73700
Al1769     Al  0.56740827  0.17559593  0.21577076     1.49000
C1770       C  0.52971208  0.20638863  0.20378087     0.93600
O1771       O  0.58352064  0.26477683  0.25366113    -0.79900
O1772       O  0.65891996  0.24421162  0.25139093    -0.73500
Al1773     Al  0.60126846  0.25481695  0.21996173     1.90100
O1774       O  0.61213021  0.25247738  0.28452718    -0.72500
O1775       O  0.62044867  0.17664701  0.25734140    -0.72400
O1776       O  0.56936132  0.18467276  0.28514319    -0.78000
O1777       O  0.60274707  0.16566127  0.21271584    -0.76200
O1778       O  0.59406505  0.21495344  0.23428366    -1.12400
O1779       O  0.58067502  0.19498974  0.17773499    -0.71600
C1780       C  0.60470172  0.22398685  0.16838363     0.99200
C1781       C  0.59611362  0.26770525  0.27844855     0.95600
Al1782     Al  0.61363900  0.21448102  0.26720412     1.55600
O1783       O  0.55692577  0.23591755  0.20236245    -0.76200
C1784       C  0.61991875  0.16374252  0.23302566     0.99700
C1785       C  0.66843921  0.27254639  0.23866410     0.94600
O1786       O  0.64727297  0.28191291  0.23312961    -0.81500
O1787       O  0.75870770  0.38960674  0.23883314    -0.81000
C1788       C  0.83690344  0.45758868  0.14049834     0.98400
O1789       O  0.84980076  0.46251300  0.16544403    -0.70100
O1790       O  0.81895717  0.48023691  0.20352783    -0.73700
Al1791     Al  0.82846038  0.44383650  0.20240085     1.49000
C1792       C  0.79557298  0.47886179  0.21928877     0.93600
O1793       O  0.73581030  0.42070948  0.17198497    -0.79900
O1794       O  0.75854932  0.34593830  0.17610724    -0.73500
Al1795     Al  0.74888815  0.40546910  0.20520652     1.90100
O1796       O  0.74453328  0.38817572  0.14173241    -0.72500
O1797       O  0.82382218  0.38423714  0.16364005    -0.72400
O1798       O  0.80989778  0.42958215  0.13413834    -0.78000
O1799       O  0.84380197  0.41219288  0.20396843    -0.76200
O1800       O  0.78762020  0.41298773  0.18802175    -1.12400
O1801       O  0.81387225  0.43047665  0.24202015    -0.71600
C1802       C  0.78615633  0.40577139  0.25305892     0.99200
C1803       C  0.73184679  0.40684710  0.14741936     0.95600
Al1804     Al  0.78458045  0.38898339  0.15639373     1.55600
O1805       O  0.76731187  0.45061327  0.22239543    -0.76200
C1806       C  0.84183358  0.39047158  0.18587580     0.99700
C1807       C  0.73098929  0.33669038  0.18977901     0.94600
O1808       O  0.72115052  0.35783440  0.19446747    -0.81500
O1809       O  0.63064646  0.23411402  0.07822240    -0.81000
C1810       C  0.60459277  0.15849733  0.47762433     0.98400
O1811       O  0.61308990  0.15752106  0.50317938    -0.70100
O1812       O  0.64139557  0.18544737  0.05392405    -0.73700
Al1813     Al  0.59921748  0.17376371  0.03605462     1.49000
C1814       C  0.67197827  0.21096704  0.05240650     0.93600
O1815       O  0.66916298  0.28041489  0.00609309    -0.79900
O1816       O  0.59406325  0.25830008  0.50218531    -0.73500
Al1817     Al  0.64652158  0.25300121  0.04012336     1.90100
O1818       O  0.63733613  0.24371459  0.47035827    -0.72500
O1819       O  0.54901657  0.19178440  0.50480519    -0.72400
O1820       O  0.59205238  0.17701672  0.47060478    -0.78000
O1821       O  0.55296818  0.15157872  0.02214933    -0.76200
O1822       O  0.61416917  0.21573258  0.02147006    -1.12400
O1823       O  0.58308252  0.18395328  0.07032384    -0.71600
C1824       C  0.60262206  0.20812577  0.08722484     0.99200
C1825       C  0.66371437  0.27078574  0.47916352     0.95600
Al1826     Al  0.59455033  0.21723682  0.48950331     1.55600
O1827       O  0.67897028  0.23816387  0.03905479    -0.76200
C1828       C  0.53555879  0.16494429  0.01534503     0.99700
C1829       C  0.60035651  0.27527039  0.02593786     0.94600
O1830       O  0.61789684  0.27112875  0.04443168    -0.81500
O1831       O  0.61881143  0.39074895  0.01671500    -0.81000
C1832       C  0.60240438  0.46278125  0.10838871     0.98400
O1833       O  0.59288639  0.46229477  0.08287179    -0.70100
O1834       O  0.64531920  0.48168242  0.04802627    -0.73700
Al1835     Al  0.59951086  0.44322161  0.04848136     1.49000
C1836       C  0.66810469  0.48134669  0.03263748     0.93600
O1837       O  0.67332390  0.42885663  0.08336607    -0.79900
O1838       O  0.57567604  0.34975465  0.08203409    -0.73500
Al1839     Al  0.64455331  0.41036123  0.05036727     1.90100
O1840       O  0.63155613  0.39853276  0.11494750    -0.72500
O1841       O  0.54547088  0.38612308  0.08971233    -0.72400
O1842       O  0.60520050  0.43813099  0.11796923    -0.78000
O1843       O  0.55250290  0.40844428  0.04662995    -0.76200
O1844       O  0.61158657  0.41618139  0.06588131    -1.12400
O1845       O  0.60373126  0.42947341  0.01029382    -0.71600
C1846       C  0.60830144  0.40581193  0.00074530     0.99200
C1847       C  0.66335225  0.41622815  0.10842199     0.95600
Al1848     Al  0.59102342  0.39480016  0.09867879     1.55600
O1849       O  0.67012681  0.45457218  0.03133572    -0.76200
C1850       C  0.53291490  0.38930637  0.06657718     0.99700
C1851       C  0.59532505  0.34179128  0.06906674     0.94600
O1852       O  0.62627899  0.36452947  0.06362972    -0.81500
O1853       O  0.88336422  0.12693625  0.26525278    -0.81000
C1854       C  0.88934255  0.06169155  0.36548010     0.98400
O1855       O  0.89670504  0.05567388  0.34060469    -0.70100
O1856       O  0.84783953  0.03732021  0.30306430    -0.73700
Al1857     Al  0.89516077  0.07311785  0.30325254     1.49000
C1858       C  0.82699301  0.03861212  0.28628161     0.93600
O1859       O  0.82635614  0.09805931  0.33166298    -0.79900
O1860       O  0.92606690  0.17312373  0.32713147    -0.73500
Al1861     Al  0.85604978  0.11208728  0.29861837     1.90100
O1862       O  0.86818212  0.13073353  0.36192284    -0.72500
O1863       O  0.95235664  0.13495709  0.33986508    -0.72400
O1864       O  0.89152777  0.09009357  0.37103433    -0.78000
O1865       O  0.94336176  0.10387328  0.30118314    -0.76200
O1866       O  0.88656912  0.10499364  0.31651825    -1.12400
O1867       O  0.89488205  0.08496405  0.26311098    -0.71600
C1868       C  0.89338579  0.10963153  0.25144831     0.99200
C1869       C  0.83630715  0.11288631  0.35590119     0.95600
Al1870     Al  0.90793722  0.13011823  0.34753416     1.55600
O1871       O  0.82834318  0.06682227  0.28223184    -0.76200
C1872       C  0.96388729  0.12655064  0.31849424     0.99700
C1873       C  0.90769134  0.18177894  0.31360439     0.94600
O1874       O  0.87664326  0.15970122  0.30811289    -0.81500
O1875       O  0.88554324  0.26544659  0.43655131    -0.81000
C1876       C  0.95134027  0.35763684  0.02679618     0.98400
O1877       O  0.94985867  0.36687887  0.00150664    -0.70100
O1878       O  0.97222371  0.33616491  0.47027454    -0.73700
Al1879     Al  0.93257040  0.33973276  0.46852466     1.49000
C1880       C  0.97424672  0.31283274  0.45718140     0.93600
O1881       O  0.91854749  0.25069969  0.50617105    -0.79900
O1882       O  0.84056490  0.26749011  0.00045210    -0.73500
Al1883     Al  0.90243034  0.26066639  0.47181965     1.90100
O1884       O  0.88636351  0.26063705  0.03518139    -0.72500
O1885       O  0.87660683  0.33525758  0.00800108    -0.72400
O1886       O  0.92751514  0.32877878  0.03673345    -0.78000
O1887       O  0.89610692  0.34789446  0.46454297    -0.76200
O1888       O  0.90632759  0.29930603  0.48620144    -1.12400
O1889       O  0.92203581  0.32125821  0.43043779    -0.71600
C1890       C  0.90004872  0.29178933  0.42061704     0.99200
C1891       C  0.90428025  0.24714603  0.02992502     0.95600
Al1892     Al  0.88452960  0.29820733  0.01766084     1.55600
O1893       O  0.94843134  0.28233553  0.45571662    -0.76200
C1894       C  0.87713476  0.34814654  0.48437913     0.99700
C1895       C  0.83262130  0.23911711  0.48800572     0.94600
O1896       O  0.85521338  0.23134595  0.48272226    -0.81500
C1897       C  0.49503000  0.36933149  0.06191177    -0.15600
C1898       C  0.98314695  0.38089653  0.04281674    -0.30800
H1899       H  0.47952849  0.34395317  0.07193426     0.13400
H1900       H  0.99934595  0.40680365  0.03379231     0.14000
C1901       C  0.58931837  0.30008163  0.03274586    -0.15600
C1902       C  0.58392264  0.30608523  0.06030045    -0.30800
H1903       H  0.59233253  0.31811763  0.01587079     0.13400
H1904       H  0.58007086  0.28774984  0.07718046     0.14000
C1905       C  0.71176870  0.41124283  0.12472900    -0.15600
C1906       C  0.68828051  0.42007482  0.13046027    -0.30800
H1907       H  0.71393920  0.40363498  0.10294026     0.13400
H1908       H  0.68348970  0.42435514  0.15261653     0.14000
C1909       C  0.80363889  0.50919546  0.23723628    -0.15600
C1910       C  0.80560031  0.00878312  0.26761253    -0.30800
H1911       H  0.81849698  0.53477989  0.22740671     0.13400
H1912       H  0.79320633  0.98294190  0.27701859     0.14000
C1913       C  0.70398975  0.29546635  0.22877544    -0.15600
C1914       C  0.70928364  0.30113220  0.20027410    -0.30800
H1915       H  0.72178543  0.31496741  0.24378588     0.13400
H1916       H  0.69058203  0.28241525  0.18528836     0.14000
C1917       C  0.59327653  0.20490451  0.11797451    -0.15600
C1918       C  0.61409489  0.22825753  0.13759790    -0.30800
H1919       H  0.56894744  0.18223007  0.12473200     0.13400
H1920       H  0.63807449  0.25134816  0.13090126     0.14000
C1921       C  0.51286651  0.13348228  0.29025233    -0.15600
C1922       C  0.00173661  0.14524519  0.31226832    -0.30800
H1923       H  0.49546221  0.10871950  0.28006221     0.13400
H1924       H  0.01820862  0.17050619  0.32203447     0.14000
C1925       C  0.78991027  0.20688329  0.45069578    -0.15600
C1926       C  0.79710493  0.21461547  0.47888712    -0.30800
H1927       H  0.80774744  0.22410932  0.43421606     0.13400
H1928       H  0.77896917  0.19778237  0.49538102     0.14000
C1929       C  0.77903785  0.10216239  0.37140675    -0.15600
C1930       C  0.81135564  0.11071976  0.37779436    -0.30800
H1931       H  0.77012302  0.09578722  0.34935943     0.13400
H1932       H  0.82086694  0.11917216  0.39947486     0.14000
C1933       C  0.60899388  0.13649295  0.45664296    -0.15600
C1934       C  0.63725063  0.14999141  0.43962375    -0.30800
H1935       H  0.59490404  0.10884796  0.46120477     0.13400
H1936       H  0.65290393  0.17798503  0.43692897     0.14000
C1937       C  0.68916438  0.00593611  0.48439700    -0.15600
C1938       C  0.68754775  0.50994453  0.01231273    -0.30800
H1939       H  0.67987226  0.97992531  0.47636781     0.13400
H1940       H  0.69519314  0.53580900  0.01978788     0.14000
C1941       C  0.63789497  0.00881931  0.14612474    -0.15600
C1942       C  0.61183568  0.49430883  0.12531329    -0.30800
H1943       H  0.64870682  0.99443470  0.15533906     0.13400
H1944       H  0.60240654  0.51023150  0.11668067     0.14000
C1945       C  0.70881013  0.10735741  0.05000466    -0.15600
C1946       C  0.68577470  0.10549311  0.03120249    -0.30800
H1947       H  0.73018761  0.10451533  0.04293925     0.13400
H1948       H  0.66486188  0.10914934  0.03810158     0.14000
C1949       C  0.69761620  0.20959825  0.07028597    -0.15600
C1950       C  0.68949593  0.20249159  0.09838260    -0.30800
H1951       H  0.71696613  0.20567335  0.05999476     0.13400
H1952       H  0.66854913  0.20488925  0.10738899     0.14000
C1953       C  0.62991221  0.12297711  0.20700740    -0.15600
C1954       C  0.64042546  0.14731698  0.22747583    -0.30800
H1955       H  0.60409416  0.11237059  0.19831898     0.13400
H1956       H  0.66585529  0.15845416  0.23696619     0.14000
C1957       C  0.58775051  0.31546835  0.29377142    -0.15600
C1958       C  0.59430788  0.29049859  0.30050558    -0.30800
H1959       H  0.58144301  0.31782561  0.27171232     0.13400
H1960       H  0.60216731  0.28909239  0.32223428     0.14000
C1961       C  0.00537472  0.32350369  0.43979268    -0.15600
C1962       C  0.50210620  0.31267057  0.41064887    -0.30800
H1963       H  0.02900469  0.34642201  0.44705097     0.13400
H1964       H  0.47759071  0.29263272  0.40189325     0.14000
C1965       C  0.64160534  0.01255999  0.35430234    -0.15600
C1966       C  0.62740124  0.02894652  0.36731762    -0.30800
H1967       H  0.66800589  0.52454496  0.35209695     0.13400
H1968       H  0.59945134  0.01598892  0.36897029     0.14000
C1969       C  0.60429434  0.42023194  0.45103486    -0.15600
C1970       C  0.60450982  0.39845990  0.47055224    -0.30800
H1971       H  0.60762934  0.44492317  0.45770259     0.13400
H1972       H  0.60184026  0.37407191  0.46381235     0.14000
C1973       C  0.92074544  0.21795269  0.30545824    -0.15600
C1974       C  0.91702619  0.22560514  0.27820453    -0.30800
H1975       H  0.92348108  0.23540836  0.32280501     0.13400
H1976       H  0.91428116  0.20827300  0.26075831     0.14000
C1977       C  0.79720986  0.21402497  0.22582554    -0.15600
C1978       C  0.79410532  0.21426313  0.19724096    -0.30800
H1979       H  0.77742793  0.19218737  0.23826414     0.13400
H1980       H  0.81278972  0.23696601  0.18498138     0.14000
C1981       C  0.51335593  0.39740591  0.29537724    -0.15600
C1982       C  0.99869291  0.37382439  0.27579099    -0.30800
H1983       H  0.49877715  0.40826730  0.30446195     0.13400
H1984       H  0.01176891  0.36142482  0.26667382     0.14000
C1985       C  0.90379944  0.31509477  0.37258436    -0.15600
C1986       C  0.89174706  0.28763341  0.39004024    -0.30800
H1987       H  0.91921490  0.34128464  0.38100269     0.13400
H1988       H  0.87487497  0.26156029  0.38182446     0.14000
C1989       C  0.88278611  0.38127698  0.21271257    -0.15600
C1990       C  0.85864675  0.37029389  0.19217155    -0.30800
H1991       H  0.89311441  0.40734285  0.22115379     0.13400
H1992       H  0.84761783  0.34440721  0.18322664     0.14000
C1993       C  0.71499607  0.42356380  0.38593255    -0.15600
C1994       C  0.70123753  0.41967994  0.35937649    -0.30800
H1995       H  0.70259973  0.42753062  0.40444856     0.13400
H1996       H  0.71454067  0.41746683  0.34065681     0.14000
C1997       C  0.68877733  0.29461451  0.45727702    -0.15600
C1998       C  0.71637313  0.32575569  0.46361001    -0.30800
H1999       H  0.68343430  0.28663352  0.43490463     0.13400
H2000       H  0.72193246  0.33382185  0.48594352     0.14000
C2001       C  0.79061025  0.30331874  0.34754529    -0.15600
C2002       C  0.79853607  0.31287394  0.31973940    -0.30800
H2003       H  0.79526465  0.28406361  0.35687747     0.13400
H2004       H  0.79528104  0.33357028  0.31150555     0.14000
C2005       C  0.86883357  0.39245654  0.46226453    -0.15600
C2006       C  0.85582339  0.36352958  0.47837529    -0.30800
H2007       H  0.89644933  0.40697730  0.45771775     0.13400
H2008       H  0.82823057  0.34796943  0.48273961     0.14000
C2009       C  0.88017503  0.00729698  0.38579938    -0.15600
C2010       C  0.87495016  0.03387500  0.38758398    -0.30800
H2011       H  0.89704565  0.50484369  0.36731104     0.13400
H2012       H  0.85683721  0.03330380  0.40340397     0.14000
C2013       C  0.78462435  0.39567980  0.28318606    -0.15600
C2014       C  0.80992449  0.41448547  0.30183967    -0.30800
H2015       H  0.76106528  0.37243597  0.29045268     0.13400
H2016       H  0.83345557  0.43787709  0.29479327     0.14000
C2017       C  0.80364722  0.10164987  0.11578264    -0.15600
C2018       C  0.79141592  0.09951213  0.14278435    -0.30800
H2019       H  0.79012470  0.10421504  0.09765177     0.13400
H2020       H  0.80375407  0.09549938  0.16105099     0.14000
C2021       C  0.90612067  0.22480065  0.05220596    -0.15600
C2022       C  0.91438728  0.20096081  0.04567189    -0.30800
H2023       H  0.89682101  0.22535210  0.07373432     0.13400
H2024       H  0.92176311  0.19918214  0.02368980     0.14000
C2025       C  0.98311210  0.11839846  0.03948134    -0.15600
C2026       C  0.49870426  0.14768398  0.02367289    -0.30800
H2027       H  0.99706341  0.10521982  0.04359636     0.13400
H2028       H  0.48578533  0.16219918  0.02120187     0.14000
C2029       C  0.49996838  0.19842588  0.18620065    -0.15600
C2030       C  0.00318878  0.20298344  0.15711231    -0.30800
H2031       H  0.47474321  0.17837446  0.19427830     0.13400
H2032       H  0.02867092  0.22088570  0.14817240     0.14000
C2033       C  0.85944629  0.00526648  0.10726723    -0.15600
C2034       C  0.85166115  0.48595528  0.11910967    -0.30800
H2035       H  0.83200517  0.99102199  0.10255070     0.13400
H2036       H  0.83461675  0.48629893  0.10297784     0.14000
C2037       C  0.90155203  0.09620633  0.20162351    -0.15600
C2038       C  0.90198552  0.11836963  0.22108034    -0.30800
H2039       H  0.89648509  0.07083433  0.20815091     0.13400
H2040       H  0.90652377  0.14346058  0.21420967     0.14000
O2041       O  0.91028895  0.13474024  0.66462871    -0.81000
C2042       C  0.95991363  0.11434032  0.56363798     0.98400
O2043       O  0.96960092  0.12362384  0.58911270    -0.70100
O2044       O  0.97176397  0.14970367  0.64035749    -0.73700
Al2045     Al  0.94088211  0.10703098  0.62162799     1.49000
C2046       C  0.97604280  0.17967946  0.64002964     0.93600
O2047       O  0.90334846  0.17420509  0.59346217    -0.79900
O2048       O  0.84881427  0.10146691  0.58668140    -0.73500
Al2049     Al  0.90759263  0.15129087  0.62720559     1.90100
O2050       O  0.90949768  0.14643076  0.55724335    -0.72500
O2051       O  0.86908029  0.05642697  0.58986400    -0.72400
O2052       O  0.92840843  0.10046825  0.55664317    -0.78000
O2053       O  0.91609677  0.06087162  0.60669630    -0.76200
O2054       O  0.91320801  0.12054572  0.60782815    -1.12400
O2055       O  0.91440124  0.08905041  0.65586902    -0.71600
C2056       C  0.90916414  0.10747002  0.67315117     0.99200
C2057       C  0.90861739  0.17210114  0.56686025     0.95600
Al2058     Al  0.89072616  0.10250372  0.57513028     1.55600
O2059       O  0.95542706  0.18553335  0.62687455    -0.76200
C2060       C  0.88435371  0.04266722  0.60100177     0.99700
C2061       C  0.83882437  0.10568822  0.61108941     0.94600
O2062       O  0.85999974  0.12074550  0.63094673    -0.81500
O2063       O  0.78177366  0.37863993  0.84333286    -0.81000
C2064       C  0.85045898  0.40119587  0.94387531     0.98400
O2065       O  0.84857038  0.38804419  0.91951083    -0.70100
O2066       O  0.82525977  0.36116064  0.86860485    -0.73700
Al2067     Al  0.84098030  0.40480774  0.88552264     1.49000
C2068       C  0.79751517  0.33234716  0.86985814     0.93600
O2069       O  0.73537603  0.34614319  0.91602682    -0.79900
O2070       O  0.75995997  0.42396768  0.91519502    -0.73500
Al2071     Al  0.76179077  0.36484041  0.88109165     1.90100
O2072       O  0.76912830  0.38008836  0.95045413    -0.72500
O2073       O  0.82878354  0.46388831  0.90947675    -0.72400
O2074       O  0.83712774  0.41976196  0.94864876    -0.78000
O2075       O  0.86809522  0.45167786  0.89819307    -0.76200
O2076       O  0.80013294  0.39638567  0.89856308    -1.12400
O2077       O  0.83557864  0.42162880  0.85030852    -0.71600
C2078       C  0.81015960  0.40407813  0.83400980     0.99200
C2079       C  0.74233958  0.35262834  0.94249546     0.95600
Al2080     Al  0.79898629  0.42030394  0.92863548     1.55600
O2081       O  0.77202433  0.32907887  0.88362011    -0.76200
C2082       C  0.85835013  0.47312959  0.89935095     0.99700
C2083       C  0.74249035  0.41443409  0.89217544     0.94600
O2084       O  0.74568360  0.39499144  0.87483579    -0.81500
O2085       O  0.88268483  0.28053346  0.82932690    -0.81000
C2086       C  0.88869972  0.35458773  0.72917152     0.98400
O2087       O  0.89981792  0.36615554  0.75376235    -0.70100
O2088       O  0.84788695  0.33309240  0.79084181    -0.73700
Al2089     Al  0.89453750  0.34405675  0.78948562     1.49000
C2090       C  0.82520529  0.30881954  0.80645652     0.93600
O2091       O  0.82094713  0.24337368  0.76770439    -0.79900
O2092       O  0.91601470  0.27091871  0.75689873    -0.73500
Al2093     Al  0.85363635  0.26458365  0.79712744     1.90100
O2094       O  0.85567560  0.25779024  0.73009804    -0.72500
O2095       O  0.94549723  0.33760067  0.74808306    -0.72400
O2096       O  0.88271186  0.32498647  0.72193745    -0.78000
O2097       O  0.94138583  0.35805757  0.78996889    -0.76200
O2098       O  0.88216153  0.30207709  0.77602337    -1.12400
O2099       O  0.89345718  0.33373235  0.82899776    -0.71600
C2100       C  0.89269930  0.30892812  0.84180635     0.99200
C2101       C  0.82600513  0.23962356  0.74164846     0.95600
Al2102     Al  0.89853280  0.29821237  0.74194050     1.55600
O2103       O  0.82655378  0.28219006  0.81181058    -0.76200
C2104       C  0.95956591  0.35560112  0.77048444     0.99700
C2105       C  0.90199282  0.24644007  0.77485229     0.94600
O2106       O  0.87476027  0.23940606  0.78799478    -0.81500
O2107       O  0.59430507  0.38088237  0.91196104    -0.81000
C2108       C  0.54057436  0.40030321  0.81389099     0.98400
O2109       O  0.53242712  0.39168285  0.83985889    -0.70100
O2110       O  0.53242442  0.36707161  0.89125500    -0.73700
Al2111     Al  0.56288139  0.40895574  0.87088917     1.49000
C2112       C  0.52702284  0.33667596  0.89089183     0.93600
O2113       O  0.59700936  0.33976256  0.84045453    -0.79900
O2114       O  0.65366800  0.41359510  0.83237197    -0.73500
Al2115     Al  0.59490074  0.36336774  0.87448425     1.90100
O2116       O  0.59176257  0.36831474  0.80465248    -0.72500
O2117       O  0.63316386  0.45870856  0.83620607    -0.72400
O2118       O  0.57175515  0.41351348  0.80518326    -0.78000
O2119       O  0.58708293  0.45507815  0.85497061    -0.76200
O2120       O  0.58947310  0.39456437  0.85566683    -1.12400
O2121       O  0.59122865  0.42726806  0.90349188    -0.71600
C2122       C  0.59641415  0.40865582  0.92041534     0.99200
C2123       C  0.59191632  0.34227598  0.81403871     0.95600
Al2124     Al  0.61088489  0.41220620  0.82220862     1.55600
O2125       O  0.54648123  0.32983736  0.87648509    -0.76200
C2126       C  0.61843134  0.47313468  0.84748216     0.99700
C2127       C  0.66419928  0.40854561  0.85609920     0.94600
O2128       O  0.64318733  0.39272302  0.87626354    -0.81500
O2129       O  0.73638351  0.12452285  0.59336873    -0.81000
C2130       C  0.65511847  0.11716844  0.68845748     0.98400
O2131       O  0.64465596  0.10397788  0.66406717    -0.70100
O2132       O  0.67747349  0.15587214  0.62780778    -0.73700
Al2133     Al  0.66898678  0.11022392  0.62902673     1.49000
C2134       C  0.70089626  0.17892755  0.61200573     0.93600
O2135       O  0.76441171  0.18770114  0.65434315    -0.79900
O2136       O  0.74089651  0.09166073  0.66427394    -0.73500
Al2137     Al  0.74796268  0.15455646  0.62475970     1.90100
O2138       O  0.75234954  0.15212671  0.69094851    -0.72500
O2139       O  0.67374676  0.06117984  0.67254594    -0.72400
O2140       O  0.68450745  0.12429947  0.69705542    -0.78000
O2141       O  0.65716201  0.06395666  0.62880789    -0.76200
O2142       O  0.70997441  0.12448120  0.64433115    -1.12400
O2143       O  0.68310950  0.11251357  0.58979232    -0.71600
C2144       C  0.70960675  0.11428604  0.57890091     0.99200
C2145       C  0.76893388  0.18239744  0.68006485     0.95600
Al2146     Al  0.71261487  0.10861537  0.67867459     1.55600
O2147       O  0.72858805  0.17928985  0.60704559    -0.76200
C2148       C  0.65736051  0.04633831  0.64972764     0.99700
C2149       C  0.76721984  0.10789305  0.64822698     0.94600
O2150       O  0.77499608  0.13636622  0.63685419    -0.81500
O2151       O  0.71354171  0.09579552  0.99239268    -0.81000
C2152       C  0.64645364  0.05384181  0.89068624     0.98400
O2153       O  0.64300022  0.04308811  0.91619252    -0.70100
O2154       O  0.66374708  0.03666481  0.96746732    -0.73700
Al2155     Al  0.65585525  0.07030070  0.94934481     1.49000
C2156       C  0.68831626  0.03099852  0.96644350     0.93600
O2157       O  0.76171568  0.10488331  0.92165205    -0.79900
O2158       O  0.74944954  0.16303522  0.91760001    -0.73500
Al2159     Al  0.73375054  0.09966301  0.95521045     1.90100
O2160       O  0.73022230  0.10336096  0.88548238    -0.72500
O2161       O  0.68404740  0.14470752  0.91992571    -0.72400
O2162       O  0.66565758  0.08592662  0.88453937    -0.78000
O2163       O  0.63766814  0.09798278  0.93546882    -0.76200
O2164       O  0.69887677  0.09734495  0.93610017    -1.12400
O2165       O  0.66559694  0.09544800  0.98382730    -0.71600
C2166       C  0.68978224  0.09889819  0.49972587     0.99200
C2167       C  0.75551287  0.10219760  0.89493625     0.95600
Al2168     Al  0.70655258  0.12229877  0.90431634     1.55600
O2169       O  0.71582213  0.05131449  0.95302188    -0.76200
C2170       C  0.65419263  0.13032240  0.93087405     0.99700
C2171       C  0.76297660  0.17041694  0.94239141     0.97000
O2172       O  0.75479671  0.14713897  0.96079655    -0.81500
O2173       O  0.61844945  0.24889605  0.68380017    -0.81000
C2174       C  0.54757578  0.15870749  0.77614503     0.98400
O2175       O  0.54903710  0.14895745  0.75095227    -0.70100
O2176       O  0.52880918  0.18186328  0.71795174    -0.73700
Al2177     Al  0.56701838  0.17567954  0.71636474     1.49000
C2178       C  0.52880757  0.20611949  0.70465147     0.93600
O2179       O  0.58404112  0.26557572  0.75281835    -0.79900
O2180       O  0.66025261  0.24616837  0.74861664    -0.73500
Al2181     Al  0.60071413  0.25498696  0.71887386     1.90100
O2182       O  0.61446941  0.25481000  0.78299160    -0.72500
O2183       O  0.62253273  0.17858270  0.75642239    -0.72400
O2184       O  0.57210871  0.18716947  0.78567230    -0.78000
O2185       O  0.60216264  0.16536502  0.71271577    -0.76200
O2186       O  0.59442310  0.21568429  0.73373545    -1.12400
O2187       O  0.57914558  0.19386727  0.67778557    -0.71600
C2188       C  0.60290812  0.22268799  0.66782282     0.99200
C2189       C  0.59750324  0.26914242  0.77730101     0.95600
Al2190     Al  0.61565572  0.21654136  0.76606641     1.55600
O2191       O  0.55591880  0.23555054  0.70239130    -0.76200
C2192       C  0.62079240  0.16464799  0.73233397     0.99700
C2193       C  0.66872904  0.27387871  0.73519036     0.94600
O2194       O  0.64700763  0.28274046  0.73057452    -0.81500
O2195       O  0.76742130  0.41321089  0.74593084    -0.81000
C2196       C  0.85307561  0.46784599  0.65239684     0.98400
O2197       O  0.85317091  0.47486699  0.67868098    -0.70100
O2198       O  0.82270417  0.47547025  0.72722399    -0.73700
Al2199     Al  0.83319388  0.44365779  0.70941270     1.49000
C2200       C  0.79909071  0.48226425  0.72454766     0.93600
O2201       O  0.73315223  0.41416003  0.67206941    -0.79900
O2202       O  0.74826952  0.35550733  0.66698558    -0.73500
Al2203     Al  0.75492449  0.41470289  0.70732412     1.90100
O2204       O  0.76865429  0.41776754  0.63812943    -0.72500
O2205       O  0.81231758  0.37480373  0.67290351    -0.72400
O2206       O  0.83340823  0.43739144  0.64278966    -0.78000
O2207       O  0.85351058  0.41749685  0.69689605    -0.76200
O2208       O  0.79301999  0.41911149  0.69127518    -1.12400
O2209       O  0.81657783  0.41450485  0.74194721    -0.71600
C2210       C  0.79037441  0.40874988  0.75639981     0.99200
C2211       C  0.74256917  0.41875214  0.64598370     0.95600
Al2212     Al  0.79097427  0.39824582  0.65791598     1.55600
O2213       O  0.77311573  0.46347463  0.70915668    -0.76200
C2214       C  0.83959328  0.38709004  0.68710939     0.99700
C2215       C  0.73184129  0.34547204  0.69062885     0.94600
O2216       O  0.73373057  0.36681303  0.70893609    -0.81500
O2217       O  0.63021723  0.23088891  0.57823215    -0.81000
C2218       C  0.60665845  0.16139914  0.97774374     0.98400
O2219       O  0.61416072  0.16012141  0.00357137    -0.70100
O2220       O  0.64116481  0.18255766  0.55341611    -0.73700
Al2221     Al  0.59855837  0.17087144  0.53594838     1.49000
C2222       C  0.67174936  0.20802982  0.55128416     0.93600
O2223       O  0.66787311  0.27768161  0.50581194    -0.79900
O2224       O  0.59481555  0.26072252  0.00150461    -0.73500
Al2225     Al  0.64575430  0.25004474  0.54008347     1.90100
O2226       O  0.63910211  0.24672386  0.97036992    -0.72500
O2227       O  0.55012943  0.19431691  0.00366910    -0.72400
O2228       O  0.59434166  0.17999131  0.97028543    -0.78000
O2229       O  0.55219900  0.14878900  0.52234415    -0.76200
O2230       O  0.61322133  0.21287280  0.52158380    -1.12400
O2231       O  0.58262146  0.18074212  0.57036208    -0.71600
C2232       C  0.60203804  0.20499659  0.58719249     0.99200
C2233       C  0.66547502  0.27355943  0.97947178     0.95600
Al2234     Al  0.59601225  0.21998295  0.98900602     1.55600
O2235       O  0.67827878  0.23531685  0.53832618    -0.76200
C2236       C  0.53466991  0.16223181  0.51615297     0.99700
C2237       C  0.60001762  0.27288328  0.52661965     0.94600
O2238       O  0.61716804  0.26809701  0.54505161    -0.81500
O2239       O  0.62074115  0.39183076  0.51668307    -0.81000
C2240       C  0.60444421  0.46145551  0.61040513     0.98400
O2241       O  0.59425005  0.46095608  0.58513212    -0.70100
O2242       O  0.64680765  0.48180453  0.54997939    -0.73700
Al2243     Al  0.60121468  0.44303007  0.55014696     1.49000
C2244       C  0.66944897  0.48190035  0.53406123     0.93600
O2245       O  0.67582597  0.42858486  0.58340752    -0.79900
O2246       O  0.57825788  0.34940382  0.58254281    -0.73500
Al2247     Al  0.64667387  0.41067624  0.55046549     1.90100
O2248       O  0.63435747  0.39747993  0.61492999    -0.72500
O2249       O  0.54792287  0.38547593  0.59127089    -0.72400
O2250       O  0.60814845  0.43715008  0.61938452    -0.78000
O2251       O  0.55457724  0.40778488  0.54820289    -0.76200
O2252       O  0.61376864  0.41594711  0.56673199    -1.12400
O2253       O  0.60551093  0.43055167  0.51134785    -0.71600
C2254       C  0.61013461  0.40718641  0.50114851     0.99200
C2255       C  0.66609680  0.41537578  0.60830852     0.95600
Al2256     Al  0.59370529  0.39410194  0.59953464     1.55600
O2257       O  0.67187570  0.45537789  0.53226214    -0.76200
C2258       C  0.53517287  0.38855204  0.56818067     0.99700
C2259       C  0.59768693  0.34152365  0.56912792     0.94600
O2260       O  0.62837525  0.36438012  0.56279692    -0.81500
O2261       O  0.88375153  0.12775479  0.76764233    -0.81000
C2262       C  0.89178590  0.06254457  0.86714958     0.98400
O2263       O  0.90025563  0.05770499  0.84230461    -0.70100
O2264       O  0.85081003  0.03855124  0.80545385    -0.73700
Al2265     Al  0.89757684  0.07502670  0.80521475     1.49000
C2266       C  0.82948469  0.03880741  0.78860085     0.93600
O2267       O  0.82684625  0.09695607  0.83424881    -0.79900
O2268       O  0.92594478  0.17366128  0.83026782    -0.73500
Al2269     Al  0.85653030  0.11193514  0.80115076     1.90100
O2270       O  0.86832298  0.13015180  0.86459328    -0.72500
O2271       O  0.95352386  0.13647117  0.84249920    -0.72400
O2272       O  0.89265475  0.09022851  0.87308190    -0.78000
O2273       O  0.94530939  0.10690301  0.80297203    -0.76200
O2274       O  0.88779408  0.10581739  0.81885862    -1.12400
O2275       O  0.89650844  0.08672436  0.76514695    -0.71600
C2276       C  0.89423603  0.11099202  0.75360269     0.99200
C2277       C  0.83650571  0.11179483  0.85851560     0.95600
Al2278     Al  0.90858696  0.13058395  0.85016703     1.55600
O2279       O  0.82965326  0.06644515  0.78444393    -0.76200
C2280       C  0.96545168  0.12903821  0.82078283     0.99700
C2281       C  0.90709290  0.18175819  0.81681294     0.94600
O2282       O  0.87620166  0.15926766  0.81116317    -0.81500
O2283       O  0.88525621  0.26486700  0.93610861    -0.81000
C2284       C  0.95047116  0.35734877  0.52787681     0.98400
O2285       O  0.94852839  0.36679486  0.50279884    -0.70100
O2286       O  0.97232806  0.33572093  0.96845873    -0.73700
Al2287     Al  0.93290927  0.33979869  0.96736698     1.49000
C2288       C  0.97398367  0.31186464  0.95596374     0.93600
O2289       O  0.91886017  0.25140032  0.00566430    -0.79900
O2290       O  0.84021616  0.26660136  0.50138498    -0.73500
Al2291     Al  0.90236182  0.26062237  0.97130891     1.90100
O2292       O  0.88642241  0.26017116  0.53596897    -0.72500
O2293       O  0.87539490  0.33426537  0.50847968    -0.72400
O2294       O  0.92687880  0.32832784  0.53768355    -0.78000
O2295       O  0.89690403  0.34901618  0.96398378    -0.76200
O2296       O  0.90661026  0.29960061  0.98531918    -1.12400
O2297       O  0.92124086  0.32076211  0.92952619    -0.71600
C2298       C  0.89938909  0.29104050  0.92000431     0.99200
C2299       C  0.90402590  0.24635785  0.53049514     0.95600
Al2300     Al  0.88402192  0.29755478  0.51849983     1.55600
O2301       O  0.94798244  0.28151892  0.95490249    -0.76200
C2302       C  0.87852209  0.34964600  0.98419399     0.99700
C2303       C  0.83283388  0.23977774  0.98733626     0.94600
O2304       O  0.85527347  0.23167299  0.98257127    -0.81500
C2305       C  0.49731750  0.36852860  0.56347479    -0.15600
C2306       C  0.98250385  0.38044851  0.54371332    -0.30800
H2307       H  0.48181628  0.34300512  0.57324238     0.13400
H2308       H  0.99862611  0.40642103  0.53479471     0.14000
C2309       C  0.59013335  0.29856271  0.53343390    -0.15600
C2310       C  0.58620362  0.30563580  0.56102240    -0.30800
H2311       H  0.59261457  0.31611956  0.51631628     0.13400
H2312       H  0.58283356  0.28779673  0.57818791     0.14000
C2313       C  0.72206618  0.42369122  0.62397815    -0.15600
C2314       C  0.69089265  0.41885963  0.63035649    -0.30800
H2315       H  0.73114990  0.42798799  0.60176544     0.13400
H2316       H  0.68125009  0.41275665  0.65239090     0.14000
C2317       C  0.80101591  0.51003807  0.74259910    -0.15600
C2318       C  0.80886587  0.00813644  0.77054291    -0.30800
H2319       H  0.80825793  0.53466998  0.73255979     0.13400
H2320       H  0.80447980  0.98360669  0.77886206     0.14000
C2321       C  0.70394960  0.29746073  0.72471278    -0.15600
C2322       C  0.70831558  0.30860108  0.69716917    -0.30800
H2323       H  0.72334582  0.31274541  0.74072129     0.13400
H2324       H  0.68928076  0.29299265  0.68102388     0.14000
C2325       C  0.59222577  0.20204782  0.61779687    -0.15600
C2326       C  0.61230343  0.22623974  0.63710680    -0.30800
H2327       H  0.56820015  0.17909219  0.62467904     0.13400
H2328       H  0.63593901  0.24959040  0.63018147     0.14000
C2329       C  0.51518392  0.13655961  0.79263430    -0.15600
C2330       C  0.00326460  0.14794111  0.81471096    -0.30800
H2331       H  0.49808006  0.11086564  0.78377046     0.13400
H2332       H  0.01945590  0.17372202  0.82366761     0.14000
C2333       C  0.79099899  0.20568687  0.95002327    -0.15600
C2334       C  0.79737931  0.21537217  0.97793994    -0.30800
H2335       H  0.80979311  0.22124413  0.93342665     0.13400
H2336       H  0.77823068  0.20044657  0.99451051     0.14000
C2337       C  0.77851680  0.09904902  0.87397315    -0.15600
C2338       C  0.81128443  0.10923878  0.88031087    -0.30800
H2339       H  0.76938588  0.09137438  0.85210642     0.13400
H2340       H  0.82089285  0.11888333  0.90176101     0.14000
C2341       C  0.61142250  0.13922992  0.95704654    -0.15600
C2342       C  0.64007248  0.15211369  0.94046507    -0.30800
H2343       H  0.59635986  0.11150103  0.96119689     0.13400
H2344       H  0.65656555  0.18005995  0.93807867     0.14000
C2345       C  0.68670888  0.00442062  0.98560343    -0.15600
C2346       C  0.68781231  0.51037957  0.51345957    -0.30800
H2347       H  0.67567365  0.97814377  0.97755297     0.13400
H2348       H  0.69398296  0.53596179  0.52048591     0.14000
C2349       C  0.63916327  0.00809487  0.64613809    -0.15600
C2350       C  0.61335359  0.49253163  0.62774530    -0.30800
H2351       H  0.65070300  0.99414451  0.65482063     0.13400
H2352       H  0.60292358  0.50785135  0.61971711     0.14000
C2353       C  0.71034240  0.10628493  0.54871848    -0.15600
C2354       C  0.68729723  0.10503014  0.53020710    -0.30800
H2355       H  0.73157838  0.10340455  0.54130376     0.13400
H2356       H  0.66647960  0.10864399  0.53750324     0.14000
C2357       C  0.69827018  0.20647149  0.56780862    -0.15600
C2358       C  0.69303787  0.20209836  0.59643326    -0.30800
H2359       H  0.71510591  0.19959694  0.55669716     0.13400
H2360       H  0.67388483  0.20667866  0.60639548     0.14000
C2361       C  0.63203623  0.12529566  0.70479839    -0.15600
C2362       C  0.64170240  0.14857659  0.72616988    -0.30800
H2363       H  0.60674411  0.11554908  0.69530875     0.13400
H2364       H  0.66651994  0.15872948  0.73654388     0.14000
C2365       C  0.58746423  0.31550839  0.79316845    -0.15600
C2366       C  0.59539213  0.29146707  0.79951430    -0.30800
H2367       H  0.58055140  0.31766375  0.77127400     0.13400
H2368       H  0.60401423  0.29047414  0.82104368     0.14000
C2369       C  0.00504477  0.32161103  0.93885562    -0.15600
C2370       C  0.50047392  0.31119146  0.91071205    -0.30800
H2371       H  0.02906337  0.34376329  0.94647682     0.13400
H2372       H  0.47674285  0.28987309  0.90190473     0.14000
C2373       C  0.64181387  0.01160355  0.85556205    -0.15600
C2374       C  0.62712870  0.02753507  0.86861162    -0.30800
H2375       H  0.66675791  0.52342703  0.85357957     0.13400
H2376       H  0.59914567  0.01402940  0.87040133     0.14000
C2377       C  0.60272390  0.41829243  0.95074932    -0.15600
C2378       C  0.60288955  0.39663091  0.97033059    -0.30800
H2379       H  0.60595788  0.44299613  0.95726984     0.13400
H2380       H  0.60029392  0.37220497  0.96382098     0.14000
C2381       C  0.91952695  0.21760240  0.80832902    -0.15600
C2382       C  0.91611447  0.22435479  0.78076972    -0.30800
H2383       H  0.92118595  0.23507196  0.82525926     0.13400
H2384       H  0.91411142  0.20676893  0.76380474     0.14000
C2385       C  0.79681054  0.21201552  0.72532732    -0.15600
C2386       C  0.79587720  0.21196516  0.69655249    -0.30800
H2387       H  0.77567992  0.19091242  0.73737506     0.13400
H2388       H  0.81589929  0.23409715  0.68457507     0.14000
C2389       C  0.51279744  0.39734772  0.79541918    -0.15600
C2390       C  0.99742176  0.37227522  0.77554153    -0.30800
H2391       H  0.49860819  0.40849812  0.80474713     0.13400
H2392       H  0.01089367  0.36018625  0.76664526     0.14000
C2393       C  0.90270429  0.31350628  0.87186490    -0.15600
C2394       C  0.89078097  0.28633170  0.88954924    -0.30800
H2395       H  0.91822748  0.33981917  0.87999540     0.13400
H2396       H  0.87385295  0.26013327  0.88162541     0.14000
C2397       C  0.88212390  0.37689956  0.71041825    -0.15600
C2398       C  0.85373055  0.36472893  0.69423150    -0.30800
H2399       H  0.89686866  0.40444596  0.71530644     0.13400
H2400       H  0.83779895  0.33707385  0.69014461     0.14000
C2401       C  0.71490230  0.42224625  0.88641868    -0.15600
C2402       C  0.70062687  0.41777689  0.85993575    -0.30800
H2403       H  0.70242261  0.42605812  0.90495448     0.13400
H2404       H  0.71395658  0.41572777  0.84116676     0.14000
C2405       C  0.69119274  0.29724862  0.95801046    -0.15600
C2406       C  0.71869423  0.32825847  0.96478633    -0.30800
H2407       H  0.68638550  0.28937200  0.93559268     0.13400
H2408       H  0.72373460  0.33624498  0.98716275     0.14000
C2409       C  0.79437392  0.30539833  0.85046138    -0.15600
C2410       C  0.80048139  0.31432010  0.82236564    -0.30800
H2411       H  0.79941595  0.28620503  0.85932583     0.13400
H2412       H  0.79730554  0.33519411  0.81455752     0.14000
C2413       C  0.87105539  0.39613693  0.96538158    -0.15600
C2414       C  0.85754981  0.36554347  0.97909067    -0.30800
H2415       H  0.89892157  0.41175575  0.96244536     0.13400
H2416       H  0.82968375  0.34904163  0.98158729     0.14000
C2417       C  0.88303012  0.00776368  0.88643007    -0.15600
C2418       C  0.87754736  0.03415540  0.88870173    -0.30800
H2419       H  0.90001260  0.50920519  0.87034715     0.13400
H2420       H  0.85921547  0.03301698  0.90458623     0.14000
C2421       C  0.78674224  0.39823317  0.78627382    -0.15600
C2422       C  0.81411380  0.41256970  0.80347705    -0.30800
H2423       H  0.76082429  0.38124029  0.79486875     0.13400
H2424       H  0.83961712  0.43157021  0.79510863     0.14000
C2425       C  0.80305328  0.09697697  0.61597938    -0.15600
C2426       C  0.79069427  0.09515352  0.64288402    -0.30800
H2427       H  0.78951449  0.09915987  0.59766905     0.13400
H2428       H  0.80313264  0.09163057  0.66133057     0.14000
C2429       C  0.90569250  0.22369698  0.55270355    -0.15600
C2430       C  0.91271761  0.19893707  0.54605784    -0.30800
H2431       H  0.89744461  0.22503558  0.57446393     0.13400
H2432       H  0.91921493  0.19654690  0.52392481     0.14000
C2433       C  0.98644148  0.11951675  0.54261366    -0.15600
C2434       C  0.49796784  0.14479378  0.52480094    -0.30800
H2435       H  0.00092807  0.10710820  0.54756088     0.13400
H2436       H  0.48440326  0.15854335  0.52148425     0.14000
C2437       C  0.49854629  0.19768685  0.68761749    -0.15600
C2438       C  0.00183478  0.20549780  0.65943614    -0.30800
H2439       H  0.47374820  0.17681654  0.69567843     0.13400
H2440       H  0.02680950  0.22495773  0.65057552     0.14000
C2441       C  0.86447548  0.00589019  0.60994436    -0.15600
C2442       C  0.87658767  0.49645789  0.63325045    -0.30800
H2443       H  0.83703331  0.99081848  0.60514563     0.13400
H2444       H  0.90251509  0.51376586  0.64126884     0.14000
C2445       C  0.90308333  0.09794825  0.70381373    -0.15600
C2446       C  0.90236568  0.11969078  0.72311106    -0.30800
H2447       H  0.89929883  0.07312737  0.71059364     0.13400
H2448       H  0.90565941  0.14422540  0.71603527     0.14000
O2449       O  0.91479336  0.63803120  0.16356319    -0.81000
C2450       C  0.96248475  0.61729387  0.06160349     0.98400
O2451       O  0.97467208  0.63128535  0.08563160    -0.70100
O2452       O  0.97860863  0.65810121  0.13728713    -0.73700
Al2453     Al  0.94970345  0.61444383  0.12025705     1.49000
C2454       C  0.97967986  0.68645741  0.13756188     0.93600
O2455       O  0.90385301  0.67238163  0.09139478    -0.79900
O2456       O  0.84943411  0.59525910  0.09004790    -0.73500
Al2457     Al  0.91010096  0.65280259  0.12616170     1.90100
O2458       O  0.90518020  0.64008527  0.05628955    -0.72500
O2459       O  0.87650215  0.55530492  0.09671659    -0.72400
O2460       O  0.93010547  0.59874770  0.05759865    -0.78000
O2461       O  0.92856851  0.56781223  0.10739990    -0.76200
O2462       O  0.91734039  0.62249244  0.10786837    -1.12400
O2463       O  0.92676039  0.59696178  0.15586298    -0.71600
C2464       C  0.91755605  0.61296776  0.17245819     0.99200
C2465       C  0.90582943  0.66707318  0.06476838     0.95600
Al2466     Al  0.89220161  0.59899426  0.07752981     1.55600
O2467       O  0.95708857  0.68956504  0.12487939    -0.76200
C2468       C  0.89661577  0.54640542  0.10690671     0.99700
C2469       C  0.84049916  0.60301948  0.11335318     0.94600
O2470       O  0.86268571  0.62136560  0.13162640    -0.81500
O2471       O  0.78046347  0.88021517  0.34279954    -0.81000
C2472       C  0.85060592  0.89956268  0.44225490     0.98400
O2473       O  0.84874358  0.88741805  0.41734725    -0.70100
O2474       O  0.82454512  0.86270814  0.36551431    -0.73700
Al2475     Al  0.84038966  0.90552995  0.38414784     1.49000
C2476       C  0.79696161  0.83371700  0.36678428     0.93600
O2477       O  0.73521419  0.84487432  0.41599780    -0.79900
O2478       O  0.75988369  0.92352001  0.41658900    -0.73500
Al2479     Al  0.76117801  0.86494039  0.38085289     1.90100
O2480       O  0.76917725  0.87843944  0.45045307    -0.72500
O2481       O  0.82855966  0.96370903  0.41040469    -0.72400
O2482       O  0.83730912  0.91800911  0.44792817    -0.78000
O2483       O  0.86769015  0.95173892  0.39821326    -0.76200
O2484       O  0.79968544  0.89628103  0.39823239    -1.12400
O2485       O  0.83391649  0.92387818  0.34992444    -0.71600
C2486       C  0.80824636  0.90668773  0.33368456     0.99200
C2487       C  0.74236456  0.85094086  0.44249929     0.95600
Al2488     Al  0.79893410  0.91935034  0.42902879     1.55600
O2489       O  0.77207586  0.82969704  0.38190300    -0.76200
C2490       C  0.85798147  0.97317395  0.39979500     0.99700
C2491       C  0.74220088  0.91437685  0.39368464     0.94600
O2492       O  0.74468835  0.89474069  0.37612804    -0.81500
O2493       O  0.88190004  0.78519480  0.33086013    -0.81000
C2494       C  0.89253110  0.85824404  0.22929300     0.98400
O2495       O  0.90411741  0.86969122  0.25370532    -0.70100
O2496       O  0.84882445  0.83637197  0.28825132    -0.73700
Al2497     Al  0.89542584  0.84699869  0.28932276     1.49000
C2498       C  0.82525674  0.81186312  0.30325594     0.93600
O2499       O  0.82276726  0.74405357  0.26790700    -0.79900
O2500       O  0.91579186  0.77171480  0.25740363    -0.73500
Al2501     Al  0.85442618  0.76766396  0.29777311     1.90100
O2502       O  0.85684282  0.76080310  0.22985163    -0.72500
O2503       O  0.94683388  0.83923103  0.25010432    -0.72400
O2504       O  0.88526717  0.82819672  0.22225567    -0.78000
O2505       O  0.94212166  0.85991628  0.29189564    -0.76200
O2506       O  0.88307824  0.80465406  0.27640422    -1.12400
O2507       O  0.89114285  0.83758397  0.32909584    -0.71600
C2508       C  0.89003743  0.81335421  0.34294188     0.99200
C2509       C  0.82758312  0.74121551  0.24160391     0.95600
Al2510     Al  0.89978537  0.80048850  0.24260197     1.55600
O2511       O  0.82618724  0.78510112  0.30927786    -0.76200
C2512       C  0.96054148  0.85704401  0.27273869     0.99700
C2513       C  0.90278343  0.74865199  0.27666714     0.94600
O2514       O  0.87720005  0.74368883  0.29131422    -0.81500
O2515       O  0.59579035  0.88294812  0.41252168    -0.81000
C2516       C  0.54230843  0.90221590  0.31459199     0.98400
O2517       O  0.53438325  0.89446241  0.34072560    -0.70100
O2518       O  0.53447368  0.87013266  0.39233424    -0.73700
Al2519     Al  0.56510751  0.91163703  0.37153597     1.49000
C2520       C  0.52871020  0.83958970  0.39204930     0.93600
O2521       O  0.59778209  0.84078500  0.34132283    -0.79900
O2522       O  0.65506869  0.91490727  0.33319824    -0.73500
Al2523     Al  0.59593606  0.86498065  0.37519210     1.90100
O2524       O  0.59316739  0.86944728  0.30534728    -0.72500
O2525       O  0.63510881  0.96021310  0.33627736    -0.72400
O2526       O  0.57333577  0.91481096  0.30566251    -0.78000
O2527       O  0.58955142  0.95746122  0.35521387    -0.76200
O2528       O  0.59107321  0.89644749  0.35625598    -1.12400
O2529       O  0.59390461  0.92999093  0.40397364    -0.71600
C2530       C  0.59877981  0.91113887  0.42089500     0.99200
C2531       C  0.59312735  0.84332993  0.31481063     0.95600
Al2532     Al  0.61245199  0.91356222  0.32272178     1.55600
O2533       O  0.54744213  0.83221370  0.37716950    -0.76200
C2534       C  0.62082414  0.97507228  0.34751400     0.99700
C2535       C  0.66530484  0.90981785  0.35705993     0.94600
O2536       O  0.64409583  0.89374514  0.37701545    -0.81500
O2537       O  0.73661115  0.62448972  0.09270766    -0.81000
C2538       C  0.65635016  0.61814378  0.18841154     0.98400
O2539       O  0.64601407  0.60641908  0.16365696    -0.70100
O2540       O  0.67992843  0.65833910  0.12755875    -0.73700
Al2541     Al  0.67007963  0.61212965  0.12871719     1.49000
C2542       C  0.70330678  0.68074430  0.11130925     0.93600
O2543       O  0.76647162  0.68800300  0.15382385    -0.79900
O2544       O  0.74194972  0.59196884  0.16405990    -0.73500
Al2545     Al  0.74920740  0.65475851  0.12412276     1.90100
O2546       O  0.75322339  0.65258220  0.19077374    -0.72500
O2547       O  0.67435320  0.56150870  0.17126123    -0.72400
O2548       O  0.68544979  0.62435763  0.19682119    -0.78000
O2549       O  0.65663519  0.56537773  0.12828497    -0.76200
O2550       O  0.71102974  0.62523014  0.14385096    -1.12400
O2551       O  0.68378089  0.61399003  0.08960415    -0.71600
C2552       C  0.70966359  0.61472056  0.07853774     0.99200
C2553       C  0.77035959  0.68283185  0.17979092     0.95600
Al2554     Al  0.71344732  0.60892544  0.17809788     1.55600
O2555       O  0.73060652  0.68033269  0.10635760    -0.76200
C2556       C  0.65694481  0.54718885  0.14867288     0.99700
C2557       C  0.76852634  0.60800047  0.14826946     0.94600
O2558       O  0.77587851  0.63584980  0.13595091    -0.81500
O2559       O  0.71375087  0.59411203  0.49095625    -0.81000
C2560       C  0.64551607  0.55336117  0.38936065     0.98400
O2561       O  0.64230062  0.54217559  0.41471843    -0.70100
O2562       O  0.66301080  0.53511361  0.46599393    -0.73700
Al2563     Al  0.65557614  0.56908719  0.44814914     1.49000
C2564       C  0.68743445  0.52926337  0.46504815     0.93600
O2565       O  0.76061764  0.60226603  0.41960856    -0.79900
O2566       O  0.74981973  0.66123471  0.41612904    -0.73500
Al2567     Al  0.73336776  0.59757422  0.45351940     1.90100
O2568       O  0.72906286  0.60159188  0.38380139    -0.72500
O2569       O  0.68461051  0.64395360  0.41930016    -0.72400
O2570       O  0.66491786  0.58548073  0.38349892    -0.78000
O2571       O  0.63790322  0.59725861  0.43457326    -0.76200
O2572       O  0.69857447  0.59586779  0.43478133    -1.12400
O2573       O  0.66575420  0.59392387  0.48300272    -0.71600
C2574       C  0.68729217  0.59761462  0.99998816     0.99200
C2575       C  0.75413555  0.59983281  0.39294284     0.95600
Al2576     Al  0.70631280  0.62110941  0.40313494     1.55600
O2577       O  0.71474810  0.54912089  0.45123758    -0.76200
C2578       C  0.65469187  0.62962117  0.43011573     0.99700
C2579       C  0.76399736  0.66837320  0.44065593     0.97000
O2580       O  0.75525976  0.64512465  0.45917960    -0.81500
O2581       O  0.62152547  0.75025631  0.18416207    -0.81000
C2582       C  0.55039993  0.65946208  0.27639980     0.98400
O2583       O  0.55171919  0.65012554  0.25102423    -0.70100
O2584       O  0.53158001  0.68308670  0.21801700    -0.73700
Al2585     Al  0.56982734  0.67703026  0.21656757     1.49000
C2586       C  0.53164780  0.70702770  0.20415254     0.93600
O2587       O  0.58650870  0.76704743  0.25303680    -0.79900
O2588       O  0.66291311  0.74779595  0.24930909    -0.73500
Al2589     Al  0.60346402  0.75636621  0.21912872     1.90100
O2590       O  0.61648997  0.75597578  0.28347973    -0.72500
O2591       O  0.62543202  0.68019028  0.25670143    -0.72400
O2592       O  0.57467220  0.68806034  0.28596071    -0.78000
O2593       O  0.60492288  0.66683490  0.21302638    -0.76200
O2594       O  0.59709978  0.71704092  0.23406701    -1.12400
O2595       O  0.58214644  0.69528261  0.17801633    -0.71600
C2596       C  0.60604791  0.72406886  0.16812588     0.99200
C2597       C  0.59969888  0.77049666  0.27766097     0.95600
Al2598     Al  0.61819293  0.71789134  0.26648154     1.55600
O2599       O  0.55865147  0.73664080  0.20217974    -0.76200
C2600       C  0.62350820  0.66610363  0.23265166     0.99700
C2601       C  0.67162113  0.77564942  0.23604403     0.94600
O2602       O  0.64988264  0.78442561  0.23110059    -0.81500
O2603       O  0.76191168  0.89219030  0.23930914    -0.81000
C2604       C  0.84950947  0.96285852  0.14512149     0.98400
O2605       O  0.85916248  0.96402192  0.17069237    -0.70100
O2606       O  0.82720435  0.98349214  0.20667785    -0.73700
Al2607     Al  0.83393201  0.94519257  0.20574052     1.49000
C2608       C  0.80306056  0.98267901  0.22106924     0.93600
O2609       O  0.74310082  0.92769662  0.17280244    -0.79900
O2610       O  0.76228300  0.85101963  0.17364560    -0.73500
Al2611     Al  0.75455284  0.91038214  0.20556403     1.90100
O2612       O  0.75380656  0.89824824  0.14082813    -0.72500
O2613       O  0.82861282  0.88785255  0.16455416    -0.72400
O2614       O  0.82081378  0.93812714  0.13656980    -0.78000
O2615       O  0.84539239  0.91061764  0.20731493    -0.76200
O2616       O  0.79352190  0.91729014  0.18917859    -1.12400
O2617       O  0.81693534  0.93184920  0.24433273    -0.71600
C2618       C  0.78858538  0.90759180  0.25452170     0.99200
C2619       C  0.74015069  0.91570143  0.14762781     0.95600
Al2620     Al  0.79151053  0.89559369  0.15644315     1.55600
O2621       O  0.77406985  0.95503471  0.22322737    -0.76200
C2622       C  0.84432751  0.89083235  0.18763047     0.99700
C2623       C  0.73482126  0.84198445  0.18750567     0.94600
O2624       O  0.72610197  0.86367851  0.19341426    -0.81500
O2625       O  0.63282971  0.73260887  0.07823144    -0.81000
C2626       C  0.60664496  0.65959442  0.47668466     0.98400
O2627       O  0.61508793  0.65827792  0.50219626    -0.70100
O2628       O  0.64310960  0.68398013  0.05202959    -0.73700
Al2629     Al  0.60021333  0.67288923  0.03539806     1.49000
C2630       C  0.67372933  0.70945352  0.05021700     0.93600
O2631       O  0.67005703  0.78018239  0.00599626    -0.79900
O2632       O  0.59503776  0.75840803  0.50231783    -0.73500
Al2633     Al  0.64797161  0.75209721  0.04015910     1.90100
O2634       O  0.63888858  0.74447993  0.47073335    -0.72500
O2635       O  0.54999615  0.69152351  0.50436859    -0.72400
O2636       O  0.59355480  0.67771678  0.47005744    -0.78000
O2637       O  0.55338799  0.65132470  0.02264496    -0.76200
O2638       O  0.61506941  0.71518566  0.02149962    -1.12400
O2639       O  0.58519688  0.68252458  0.07045111    -0.71600
C2640       C  0.60486386  0.70659447  0.08731795     0.99200
C2641       C  0.66524015  0.77133827  0.47994203     0.95600
Al2642     Al  0.59573516  0.71751176  0.48940101     1.55600
O2643       O  0.68035170  0.73714929  0.03789067    -0.76200
C2644       C  0.53605220  0.66494685  0.01628828     0.99700
C2645       C  0.60191447  0.77510236  0.02784916     0.94600
O2646       O  0.61954035  0.77032405  0.04580877    -0.81500
O2647       O  0.62229369  0.89131839  0.01853505    -0.81000
C2648       C  0.60387546  0.96273621  0.10975020     0.98400
O2649       O  0.59450872  0.96201430  0.08413556    -0.70100
O2650       O  0.64735499  0.98212421  0.04960863    -0.73700
Al2651     Al  0.60187596  0.94319957  0.04988765     1.49000
C2652       C  0.67046685  0.98216624  0.03441943     0.93600
O2653       O  0.67627639  0.93039975  0.08535750    -0.79900
O2654       O  0.57900789  0.85045649  0.08414384    -0.73500
Al2655     Al  0.64771455  0.91135778  0.05232622     1.90100
O2656       O  0.63467834  0.89972345  0.11693732    -0.72500
O2657       O  0.54812821  0.88631873  0.09130107    -0.72400
O2658       O  0.60743654  0.93863203  0.11947463    -0.78000
O2659       O  0.55525377  0.90795982  0.04791388    -0.76200
O2660       O  0.61436878  0.91669871  0.06758999    -1.12400
O2661       O  0.60669194  0.92955823  0.01171332    -0.71600
C2662       C  0.61175157  0.90614539  0.00230793     0.99200
C2663       C  0.66648917  0.91777327  0.11042380     0.95600
Al2664     Al  0.59386446  0.89542538  0.10046553     1.55600
O2665       O  0.67293593  0.95562941  0.03322716    -0.76200
C2666       C  0.53564116  0.88927551  0.06801923     0.99700
C2667       C  0.59890737  0.84263383  0.07146827     0.94600
O2668       O  0.62976714  0.86555533  0.06581427    -0.81500
O2669       O  0.88181646  0.62647170  0.26523472    -0.81000
C2670       C  0.88836044  0.55866862  0.36346952     0.98400
O2671       O  0.89534706  0.55302241  0.33832135    -0.70100
O2672       O  0.84729930  0.53553507  0.30013369    -0.73700
Al2673     Al  0.89441748  0.57193995  0.30154394     1.49000
C2674       C  0.82593677  0.53684133  0.28399023     0.93600
O2675       O  0.82447175  0.59430096  0.33138176    -0.79900
O2676       O  0.92360690  0.67082701  0.32825562    -0.73500
Al2677     Al  0.85430103  0.60997273  0.29839950     1.90100
O2678       O  0.86595268  0.62633256  0.36217306    -0.72500
O2679       O  0.95107032  0.63353060  0.33922423    -0.72400
O2680       O  0.89070986  0.58693491  0.36970880    -0.78000
O2681       O  0.94243710  0.60306596  0.30026467    -0.76200
O2682       O  0.88516757  0.60294540  0.31578860    -1.12400
O2683       O  0.89496260  0.58568936  0.26207674    -0.71600
C2684       C  0.89318446  0.61052416  0.25114486     0.99200
C2685       C  0.83415964  0.60829012  0.35596075     0.95600
Al2686     Al  0.90623168  0.62730164  0.34730135     1.55600
O2687       O  0.82704368  0.56507120  0.28069135    -0.76200
C2688       C  0.96276752  0.62569890  0.31765500     0.99700
C2689       C  0.90480595  0.67951302  0.31555474     0.94600
O2690       O  0.87409006  0.65717448  0.30928105    -0.81500
O2691       O  0.91089927  0.77628564  0.43099737    -0.81000
C2692       C  0.95252998  0.85433872  0.02574435     0.98400
O2693       O  0.95017426  0.86362713  0.00074658    -0.70100
O2694       O  0.97013608  0.83246466  0.45046274    -0.73700
Al2695     Al  0.93710724  0.84186274  0.46644836     1.49000
C2696       C  0.97783170  0.80972855  0.45470202     0.93600
O2697       O  0.90791749  0.74184800  0.50541490    -0.79900
O2698       O  0.84018628  0.76501331  0.00109412    -0.73500
Al2699     Al  0.91014039  0.76362879  0.46989606     1.90100
O2700       O  0.88677402  0.75716412  0.03390242    -0.72500
O2701       O  0.87737237  0.83293291  0.00828758    -0.72400
O2702       O  0.92893696  0.82541288  0.03580611    -0.78000
O2703       O  0.91094669  0.86275915  0.47687146    -0.76200
O2704       O  0.91201212  0.80119067  0.48476990    -1.12400
O2705       O  0.90960941  0.82442546  0.43322939    -0.71600
C2706       C  0.90547673  0.79825935  0.41955142     0.99200
C2707       C  0.90282681  0.74196480  0.02751893     0.95600
Al2708     Al  0.88501106  0.79525252  0.01732008     1.55600
O2709       O  0.95895354  0.78361424  0.47026078    -0.76200
C2710       C  0.88011727  0.84857241  0.48528770     0.99700
C2711       C  0.83903151  0.73813212  0.48263041     0.94600
O2712       O  0.86227332  0.74008730  0.46639438    -0.81500
C2713       C  0.49782582  0.86978844  0.06328014    -0.15600
C2714       C  0.98491817  0.87793296  0.04110307    -0.30800
H2715       H  0.48204417  0.84420953  0.07290953     0.13400
H2716       H  0.00106781  0.90337116  0.03125921     0.14000
C2717       C  0.59144022  0.80017780  0.03539122    -0.15600
C2718       C  0.58776789  0.80687965  0.06316043    -0.30800
H2719       H  0.59304345  0.81760062  0.01850252     0.13400
H2720       H  0.58546375  0.78924571  0.08012354     0.14000
C2721       C  0.71972647  0.92059223  0.12560675    -0.15600
C2722       C  0.69169331  0.92208830  0.13246205    -0.30800
H2723       H  0.72500786  0.91807496  0.10313069     0.13400
H2724       H  0.68433174  0.92093194  0.15496646     0.14000
C2725       C  0.81049539  0.01273108  0.23882980    -0.15600
C2726       C  0.80292100  0.50632085  0.26622280    -0.30800
H2727       H  0.82733695  0.03847574  0.22979592     0.13400
H2728       H  0.79258586  0.48079393  0.27585508     0.14000
C2729       C  0.70697439  0.79896621  0.22544319    -0.15600
C2730       C  0.71180137  0.80608485  0.19702419    -0.30800
H2731       H  0.72580302  0.81694114  0.24074129     0.13400
H2732       H  0.69217698  0.78875318  0.18193461     0.14000
C2733       C  0.59546207  0.70340087  0.11806230    -0.15600
C2734       C  0.61553762  0.72760224  0.13739609    -0.30800
H2735       H  0.57151565  0.68036016  0.12498495     0.13400
H2736       H  0.63907605  0.75105194  0.13044238     0.14000
C2737       C  0.51839220  0.63661188  0.29309089    -0.15600
C2738       C  0.00052630  0.64493511  0.31122132    -0.30800
H2739       H  0.50133384  0.61116789  0.28379429     0.13400
H2740       H  0.01685945  0.67017886  0.32105268     0.14000
C2741       C  0.79348927  0.70312191  0.44759660    -0.15600
C2742       C  0.80296364  0.71245419  0.47528117    -0.30800
H2743       H  0.81047812  0.71877487  0.43005765     0.13400
H2744       H  0.78521984  0.69798378  0.49283411     0.14000
C2745       C  0.77666449  0.59645037  0.37166044    -0.15600
C2746       C  0.80902176  0.60521671  0.37800466    -0.30800
H2747       H  0.76770487  0.58999673  0.34963245     0.13400
H2748       H  0.81854434  0.61366869  0.39968404     0.14000
C2749       C  0.61131293  0.63815615  0.45529661    -0.15600
C2750       C  0.64076633  0.65142288  0.43981542    -0.30800
H2751       H  0.59533059  0.61024961  0.45818124     0.13400
H2752       H  0.65784938  0.67941965  0.43857752     0.14000
C2753       C  0.68615884  0.50352633  0.48501898    -0.15600
C2754       C  0.68974343  0.01085222  0.01413463    -0.30800
H2755       H  0.67711392  0.47745015  0.47727935     0.13400
H2756       H  0.69750086  0.03672882  0.02167185     0.14000
C2757       C  0.63766733  0.50882744  0.14465589    -0.15600
C2758       C  0.61224967  0.99389088  0.12667783    -0.30800
H2759       H  0.64799428  0.49395350  0.15375981     0.13400
H2760       H  0.60229509  0.00932414  0.11794609     0.14000
C2761       C  0.70930275  0.60592010  0.04846473    -0.15600
C2762       C  0.68561274  0.60429243  0.03043786    -0.30800
H2763       H  0.73017846  0.60264835  0.04070915     0.13400
H2764       H  0.66517696  0.60834315  0.03804151     0.14000
C2765       C  0.70016587  0.70734280  0.06651592    -0.15600
C2766       C  0.69576741  0.70398361  0.09529643    -0.30800
H2767       H  0.71588177  0.69908536  0.05536308     0.13400
H2768       H  0.67742471  0.70964341  0.10538284     0.14000
C2769       C  0.63352240  0.62576546  0.20558775    -0.15600
C2770       C  0.64406676  0.64973605  0.22645707    -0.30800
H2771       H  0.60781440  0.61561298  0.19681597     0.13400
H2772       H  0.66941112  0.66044579  0.23602183     0.14000
C2773       C  0.58895217  0.81656594  0.29387619    -0.15600
C2774       C  0.59741945  0.79281090  0.29997974    -0.30800
H2775       H  0.58183468  0.81859655  0.27202241     0.13400
H2776       H  0.60623109  0.79196069  0.32145995     0.14000
C2777       C  0.00667296  0.81270375  0.43786505    -0.15600
C2778       C  0.50305597  0.81464710  0.41264449    -0.30800
H2779       H  0.03222754  0.82747015  0.44727946     0.13400
H2780       H  0.47935449  0.79257480  0.40457829     0.14000
C2781       C  0.64002496  0.51185948  0.35315161    -0.15600
C2782       C  0.62568822  0.52758531  0.36709291    -0.30800
H2783       H  0.66955964  0.02476421  0.35392014     0.13400
H2784       H  0.59776600  0.51404820  0.36944807     0.14000
C2785       C  0.60573878  0.92086244  0.45117588    -0.15600
C2786       C  0.60666124  0.89927844  0.47041476    -0.30800
H2787       H  0.60887093  0.94544439  0.45794996     0.13400
H2788       H  0.60432967  0.87505964  0.46360403     0.14000
C2789       C  0.91703215  0.71588046  0.30911061    -0.15600
C2790       C  0.91564105  0.72525792  0.28191772    -0.30800
H2791       H  0.91724572  0.73162646  0.32695479     0.13400
H2792       H  0.91550455  0.70968691  0.26396001     0.14000
C2793       C  0.79856307  0.71300107  0.22524603    -0.15600
C2794       C  0.79720015  0.71268298  0.19641940    -0.30800
H2795       H  0.77786163  0.69159414  0.23739096     0.13400
H2796       H  0.81687849  0.73500911  0.18437434     0.14000
C2797       C  0.51436452  0.89857401  0.29598182    -0.15600
C2798       C  0.99826744  0.87292461  0.27814327    -0.30800
H2799       H  0.50013828  0.90993628  0.30481721     0.13400
H2800       H  0.01150254  0.86086201  0.26867078     0.14000
C2801       C  0.89794982  0.81850525  0.37346698    -0.15600
C2802       C  0.89539160  0.79294293  0.38956193    -0.30800
H2803       H  0.90632602  0.84377820  0.38274935     0.13400
H2804       H  0.88764721  0.76789002  0.38009535     0.14000
C2805       C  0.88635388  0.88107045  0.21102717    -0.15600
C2806       C  0.86003640  0.86957966  0.19266472    -0.30800
H2807       H  0.89889239  0.90797506  0.21801284     0.13400
H2808       H  0.84666986  0.84290526  0.18512769     0.14000
C2809       C  0.71520800  0.92294399  0.38803684    -0.15600
C2810       C  0.70166086  0.91931456  0.36134104    -0.30800
H2811       H  0.70234063  0.92621008  0.40656815     0.13400
H2812       H  0.71546779  0.91784388  0.34265714     0.14000
C2813       C  0.69087264  0.79538117  0.45834950    -0.15600
C2814       C  0.71891814  0.82618205  0.46492532    -0.30800
H2815       H  0.68552605  0.78785284  0.43588674     0.13400
H2816       H  0.72452653  0.83384402  0.48733968     0.14000
C2817       C  0.79310919  0.80734984  0.34642162    -0.15600
C2818       C  0.80031468  0.81745498  0.31861054    -0.30800
H2819       H  0.79624841  0.78668253  0.35476254     0.13400
H2820       H  0.79842721  0.83930987  0.31135795     0.14000
C2821       C  0.87085601  0.89353669  0.46368347    -0.15600
C2822       C  0.85797250  0.86197048  0.47569202    -0.30800
H2823       H  0.89851095  0.91204393  0.46414029     0.13400
H2824       H  0.83028418  0.84352792  0.47481364     0.14000
C2825       C  0.87851547  0.50374874  0.38298757    -0.15600
C2826       C  0.87409591  0.53072921  0.38528989    -0.30800
H2827       H  0.89952103  0.00910234  0.37065708     0.13400
H2828       H  0.85682305  0.53065812  0.40173323     0.14000
C2829       C  0.78602953  0.89764875  0.28475644    -0.15600
C2830       C  0.81126953  0.91684937  0.30341822    -0.30800
H2831       H  0.76237202  0.87445750  0.29195504     0.13400
H2832       H  0.83477250  0.94024079  0.29630348     0.14000
C2833       C  0.80464875  0.59457045  0.11818996    -0.15600
C2834       C  0.79294768  0.59592398  0.14470710    -0.30800
H2835       H  0.79024581  0.59395411  0.09938246     0.13400
H2836       H  0.80640881  0.59535813  0.16373381     0.14000
C2837       C  0.90440693  0.71907007  0.04952128    -0.15600
C2838       C  0.90846117  0.69231976  0.04286146    -0.30800
H2839       H  0.89894568  0.72250694  0.07171824     0.13400
H2840       H  0.91215712  0.68777823  0.02048292     0.14000
C2841       C  0.98698426  0.62142792  0.03900789    -0.15600
C2842       C  0.49911314  0.64763193  0.02449444    -0.30800
H2843       H  0.00017895  0.60730637  0.04212389     0.13400
H2844       H  0.48652222  0.66253214  0.02265618     0.14000
C2845       C  0.50181096  0.69796042  0.18621346    -0.15600
C2846       C  0.00376926  0.71276218  0.15763167    -0.30800
H2847       H  0.47670931  0.67766573  0.19430143     0.13400
H2848       H  0.02922952  0.73198728  0.14944840     0.14000
C2849       C  0.88395393  0.51283514  0.12136886    -0.15600
C2850       C  0.87212751  0.99233415  0.12625347    -0.30800
H2851       H  0.90121804  0.51148222  0.13669045     0.13400
H2852       H  0.89905272  0.00787269  0.13248903     0.14000
C2853       C  0.91045284  0.60271226  0.20279970    -0.15600
C2854       C  0.90301871  0.62081985  0.22120826    -0.30800
H2855       H  0.91081048  0.57997160  0.20995371     0.13400
H2856       H  0.90258673  0.64345347  0.21381513     0.14000
O2857       O  0.91190601  0.63593498  0.66485815    -0.81000
C2858       C  0.96082612  0.61535585  0.56362036     0.98400
O2859       O  0.97054919  0.62422274  0.58914513    -0.70100
O2860       O  0.97302408  0.65068854  0.64018081    -0.73700
Al2861     Al  0.94193443  0.60784889  0.62177103     1.49000
C2862       C  0.97725923  0.68065763  0.63953271     0.93600
O2863       O  0.90406638  0.67503285  0.59417773    -0.79900
O2864       O  0.84996538  0.60273169  0.58729167    -0.73500
Al2865     Al  0.90879252  0.65223629  0.62758637     1.90100
O2866       O  0.91042682  0.64752840  0.55785302    -0.72500
O2867       O  0.86989754  0.55743854  0.59030030    -0.72400
O2868       O  0.92927772  0.60154945  0.55675777    -0.78000
O2869       O  0.91678020  0.56158119  0.60709651    -0.76200
O2870       O  0.91428631  0.62147607  0.60810961    -1.12400
O2871       O  0.91557309  0.59002862  0.65603283    -0.71600
C2872       C  0.91015224  0.60834299  0.67324638     0.99200
C2873       C  0.90927500  0.67300679  0.56759581     0.95600
Al2874     Al  0.89167526  0.60355999  0.57551983     1.55600
O2875       O  0.95641758  0.68632280  0.62662270    -0.76200
C2876       C  0.88489140  0.54362638  0.60187475     0.99700
C2877       C  0.84013093  0.60698542  0.61175531     0.94600
O2878       O  0.86132845  0.62165399  0.63166787    -0.81500
O2879       O  0.78486645  0.88063283  0.84253604    -0.81000
C2880       C  0.85198246  0.89995201  0.94373647     0.98400
O2881       O  0.85040089  0.88753768  0.91908537    -0.70100
O2882       O  0.82738151  0.86191774  0.86773038    -0.73700
Al2883     Al  0.84332805  0.90531380  0.88531607     1.49000
C2884       C  0.79942297  0.83322898  0.86850812     0.93600
O2885       O  0.73683798  0.84656540  0.91501611    -0.79900
O2886       O  0.76229345  0.92419588  0.91552805    -0.73500
Al2887     Al  0.76417873  0.86606162  0.88018995     1.90100
O2888       O  0.77081381  0.87921068  0.94987785    -0.72500
O2889       O  0.83113432  0.96404295  0.91028998    -0.72400
O2890       O  0.83883689  0.91863984  0.94878902    -0.78000
O2891       O  0.87045884  0.95197586  0.89872659    -0.76200
O2892       O  0.80240821  0.89681919  0.89823918    -1.12400
O2893       O  0.83863019  0.92315765  0.85028439    -0.71600
C2894       C  0.81353215  0.90606382  0.83358114     0.99200
C2895       C  0.74366085  0.85229500  0.94162708     0.95600
Al2896     Al  0.80104626  0.91996948  0.92878048     1.55600
O2897       O  0.77382886  0.82990450  0.88215128    -0.76200
C2898       C  0.86069604  0.97343382  0.90005966     0.99700
C2899       C  0.74544068  0.91571009  0.89219324     0.94600
O2900       O  0.74897438  0.89695000  0.87435311    -0.81500
O2901       O  0.88493273  0.78179236  0.82801416    -0.81000
C2902       C  0.89142058  0.85581651  0.72797211     0.98400
O2903       O  0.90255806  0.86761667  0.75253239    -0.70100
O2904       O  0.85034300  0.83462475  0.78943134    -0.73700
Al2905     Al  0.89703862  0.84556093  0.78839600     1.49000
C2906       C  0.82763300  0.81042237  0.80508134     0.93600
O2907       O  0.82329235  0.74532308  0.76658333    -0.79900
O2908       O  0.91850039  0.77223020  0.75617281    -0.73500
Al2909     Al  0.85590650  0.76610594  0.79592355     1.90100
O2910       O  0.85807621  0.75891041  0.72909151    -0.72500
O2911       O  0.94804557  0.83897512  0.74728067    -0.72400
O2912       O  0.88541580  0.82618049  0.72091514    -0.78000
O2913       O  0.94399024  0.85957647  0.78913684    -0.76200
O2914       O  0.88464923  0.80355477  0.77495178    -1.12400
O2915       O  0.89555034  0.83497439  0.82802517    -0.71600
C2916       C  0.89448229  0.80993196  0.84075286     0.99200
C2917       C  0.82833884  0.74104389  0.74067811     0.95600
Al2918     Al  0.90110208  0.79952327  0.74101339     1.55600
O2919       O  0.82907124  0.78390006  0.81065968    -0.76200
C2920       C  0.96214400  0.85694165  0.76970357     0.99700
C2921       C  0.90386771  0.74741165  0.77376721     0.94600
O2922       O  0.87653342  0.74052566  0.78663662    -0.81500
O2923       O  0.59845665  0.88145399  0.91292432    -0.81000
C2924       C  0.54310698  0.90106125  0.81584989     0.98400
O2925       O  0.53556938  0.89295718  0.84198421    -0.70100
O2926       O  0.53641973  0.86800867  0.89300350    -0.73700
Al2927     Al  0.56659991  0.90992166  0.87261872     1.49000
C2928       C  0.53085327  0.83756109  0.89223792     0.93600
O2929       O  0.59973235  0.84031324  0.84069509    -0.79900
O2930       O  0.65668648  0.91490170  0.83269560    -0.73500
Al2931     Al  0.59835450  0.86403197  0.87505860     1.90100
O2932       O  0.59451866  0.86927319  0.80526885    -0.72500
O2933       O  0.63603271  0.95968437  0.83697646    -0.72400
O2934       O  0.57406420  0.91405307  0.80662873    -0.78000
O2935       O  0.59044861  0.95598185  0.85682857    -0.76200
O2936       O  0.59277340  0.89541438  0.85668174    -1.12400
O2937       O  0.59562304  0.92804565  0.90489975    -0.71600
C2938       C  0.60080172  0.90926613  0.92163643     0.99200
C2939       C  0.59438110  0.84296973  0.81435850     0.95600
Al2940     Al  0.61365021  0.91312984  0.82303184     1.55600
O2941       O  0.55001291  0.83070254  0.87743828    -0.76200
C2942       C  0.62153329  0.97406828  0.84872733     0.99700
C2943       C  0.66742171  0.90972612  0.85625064     0.94600
O2944       O  0.64656071  0.89324969  0.87632965    -0.81500
O2945       O  0.73645906  0.62506765  0.59358489    -0.81000
C2946       C  0.65513713  0.61594522  0.68936845     0.98400
O2947       O  0.64464269  0.60280754  0.66495719    -0.70100
O2948       O  0.67671941  0.65507803  0.62887837    -0.73700
Al2949     Al  0.66895905  0.60969674  0.62970444     1.49000
C2950       C  0.69986453  0.67832574  0.61302248     0.93600
O2951       O  0.76389679  0.68827769  0.65457798    -0.79900
O2952       O  0.74221389  0.59287426  0.66461001    -0.73500
Al2953     Al  0.74780968  0.65506243  0.62508174     1.90100
O2954       O  0.75286968  0.65303752  0.69122691    -0.72500
O2955       O  0.67489943  0.56104689  0.67283236    -0.72400
O2956       O  0.68483105  0.62379696  0.69765424    -0.78000
O2957       O  0.65785688  0.56365725  0.62921733    -0.76200
O2958       O  0.71017947  0.62455132  0.64478775    -1.12400
O2959       O  0.68295620  0.61241066  0.59020117    -0.71600
C2960       C  0.70956837  0.61451972  0.57915235     0.99200
C2961       C  0.76898081  0.68329596  0.68021130     0.95600
Al2962     Al  0.71338798  0.60895597  0.67906114     1.55600
O2963       O  0.72765522  0.67905076  0.60771754    -0.76200
C2964       C  0.65827928  0.54608191  0.65007333     0.99700
C2965       C  0.76847172  0.60950214  0.64860713     0.94600
O2966       O  0.77561696  0.63768597  0.63702470    -0.81500
O2967       O  0.71165787  0.59394442  0.99101083    -0.81000
C2968       C  0.64402630  0.55307873  0.88976945     0.98400
O2969       O  0.64020811  0.54254551  0.91537495    -0.70100
O2970       O  0.66174440  0.53578797  0.96610344    -0.73700
Al2971     Al  0.65376261  0.56964492  0.94857633     1.49000
C2972       C  0.68619753  0.52995847  0.96458636     0.93600
O2973       O  0.76004686  0.60483765  0.92063341    -0.79900
O2974       O  0.74672664  0.66280268  0.91754543    -0.73500
Al2975     Al  0.73167289  0.59863276  0.95391869     1.90100
O2976       O  0.72892594  0.60381160  0.88447582    -0.72500
O2977       O  0.68132934  0.64363345  0.91863239    -0.72400
O2978       O  0.66395282  0.58501686  0.88336130    -0.78000
O2979       O  0.63541127  0.59732449  0.93524051    -0.76200
O2980       O  0.69673429  0.59663546  0.93505153    -1.12400
O2981       O  0.66417434  0.59472668  0.98330911    -0.71600
C2982       C  0.68894739  0.59724170  0.49983659     0.99200
C2983       C  0.75429391  0.60282243  0.89392829     0.95600
Al2984     Al  0.70442619  0.62180451  0.90342154     1.55600
O2985       O  0.71355917  0.55025243  0.95092122    -0.76200
C2986       C  0.65166023  0.62943597  0.92980336     0.99700
C2987       C  0.76024107  0.66970275  0.94239198     0.97000
O2988       O  0.75258321  0.64597186  0.96023521    -0.81500
O2989       O  0.61688899  0.74651316  0.68361488    -0.81000
C2990       C  0.54781553  0.65704640  0.77675400     0.98400
O2991       O  0.54892844  0.64720593  0.75153173    -0.70100
O2992       O  0.52801559  0.67908838  0.71811885    -0.73700
Al2993     Al  0.56656820  0.67349566  0.71676927     1.49000
C2994       C  0.52769609  0.70314803  0.70479194     0.93600
O2995       O  0.58299710  0.76403055  0.75277745    -0.79900
O2996       O  0.65999832  0.74590408  0.74847016    -0.73500
Al2997     Al  0.59937991  0.75289728  0.71872765     1.90100
O2998       O  0.61363511  0.75349321  0.78287909    -0.72500
O2999       O  0.62319152  0.67813211  0.75663893    -0.72400
O3000       O  0.57229518  0.68571685  0.78601654    -0.78000
O3001       O  0.60187284  0.66343669  0.71332281    -0.76200
O3002       O  0.59377343  0.71393397  0.73384862    -1.12400
O3003       O  0.57842622  0.69115279  0.67800823    -0.71600
C3004       C  0.60178872  0.72004563  0.66785233     0.99200
C3005       C  0.59674830  0.76790091  0.77719687     0.95600
Al3006     Al  0.61551583  0.71558027  0.76609452     1.55600
O3007       O  0.55449789  0.73277681  0.70263661    -0.76200
C3008       C  0.62096434  0.66345347  0.73285359     0.99700
C3009       C  0.66797942  0.77347199  0.73497960     0.94600
O3010       O  0.64569294  0.78140367  0.72986572    -0.81500
O3011       O  0.77198799  0.91510876  0.74504985    -0.81000
C3012       C  0.85463341  0.96641470  0.64961052     0.98400
O3013       O  0.85545147  0.97459540  0.67568519    -0.70100
O3014       O  0.82735618  0.97694987  0.72517952    -0.73700
Al3015     Al  0.83667190  0.94446657  0.70720862     1.49000
C3016       C  0.80381135  0.98388984  0.72318320     0.93600
O3017       O  0.73609552  0.91580444  0.67173922    -0.79900
O3018       O  0.74941923  0.85542777  0.66721836    -0.73500
Al3019     Al  0.75845843  0.91631004  0.70674667     1.90100
O3020       O  0.76997232  0.91699907  0.63730001    -0.72500
O3021       O  0.81363942  0.87404493  0.67231697    -0.72400
O3022       O  0.83464134  0.93560681  0.64088556    -0.78000
O3023       O  0.85620629  0.91782297  0.69431805    -0.76200
O3024       O  0.79575055  0.91958271  0.69012467    -1.12400
O3025       O  0.82113579  0.91634070  0.74055733    -0.71600
C3026       C  0.79513948  0.91077772  0.75530659     0.99200
C3027       C  0.74469408  0.91928954  0.64545977     0.95600
Al3028     Al  0.79232229  0.89747141  0.65713112     1.55600
O3029       O  0.77752607  0.96525979  0.70809496    -0.76200
C3030       C  0.84169290  0.88697020  0.68551874     0.99700
C3031       C  0.73305467  0.84621667  0.69091876     0.94600
O3032       O  0.73609443  0.86823171  0.70902003    -0.81500
O3033       O  0.62955632  0.72945053  0.57840582    -0.81000
C3034       C  0.60537663  0.66110586  0.97657214     0.98400
O3035       O  0.61380549  0.65950284  0.00201307    -0.70100
O3036       O  0.64173659  0.68197735  0.55313555    -0.73700
Al3037     Al  0.59948822  0.67031354  0.53518548     1.49000
C3038       C  0.67215329  0.70782378  0.55179529     0.93600
O3039       O  0.66886004  0.77783566  0.50668746    -0.79900
O3040       O  0.59582534  0.76095784  0.00323231    -0.73500
Al3041     Al  0.64596778  0.74951932  0.54061143     1.90100
O3042       O  0.63897596  0.74701780  0.97040377    -0.72500
O3043       O  0.55069368  0.69457471  0.00504836    -0.72400
O3044       O  0.59341454  0.68025559  0.97002581    -0.78000
O3045       O  0.55331484  0.64818826  0.52097593    -0.76200
O3046       O  0.61396791  0.71262416  0.52153017    -1.12400
O3047       O  0.58269565  0.67888412  0.56983108    -0.71600
C3048       C  0.60161115  0.70296339  0.58702724     0.99200
C3049       C  0.66566734  0.77375254  0.97927926     0.95600
Al3050     Al  0.59623431  0.72018759  0.98972111     1.55600
O3051       O  0.67869234  0.73519814  0.53906582    -0.76200
C3052       C  0.53568413  0.66166257  0.51519619     0.99700
C3053       C  0.60082058  0.77285454  0.52679701     0.94600
O3054       O  0.61723093  0.76738239  0.54546269    -0.81500
O3055       O  0.62349522  0.89323749  0.51633776    -0.81000
C3056       C  0.60553650  0.96242198  0.60955344     0.98400
O3057       O  0.59615078  0.96225677  0.58405806    -0.70100
O3058       O  0.64848693  0.98305876  0.54863963    -0.73700
Al3059     Al  0.60294399  0.94402190  0.54931473     1.49000
C3060       C  0.67157675  0.98333645  0.53319038     0.93600
O3061       O  0.67819280  0.93028854  0.58311230    -0.79900
O3062       O  0.58072332  0.85090394  0.58207789    -0.73500
Al3063     Al  0.64911172  0.91223624  0.55009152     1.90100
O3064       O  0.63665300  0.89927480  0.61456507    -0.72500
O3065       O  0.54994938  0.88645106  0.59070227    -0.72400
O3066       O  0.60959947  0.93838391  0.61864793    -0.78000
O3067       O  0.55597482  0.90861755  0.54768454    -0.76200
O3068       O  0.61589702  0.91733219  0.56614210    -1.12400
O3069       O  0.60713928  0.93109611  0.51091845    -0.71600
C3070       C  0.61234416  0.90809273  0.50085038     0.99200
C3071       C  0.66842661  0.91702023  0.60798973     0.95600
Al3072     Al  0.59583079  0.89551319  0.59895276     1.55600
O3073       O  0.67428028  0.95695174  0.53176751    -0.76200
C3074       C  0.53682080  0.88945448  0.56783668     0.99700
C3075       C  0.60017689  0.84300815  0.56876406     0.94600
O3076       O  0.63087771  0.86588310  0.56244511    -0.81500
O3077       O  0.88160340  0.62727251  0.76697899    -0.81000
C3078       C  0.88949623  0.56177242  0.86620731     0.98400
O3079       O  0.89702104  0.55628964  0.84122170    -0.70100
O3080       O  0.84706571  0.53786482  0.80503620    -0.73700
Al3081     Al  0.89421117  0.57357093  0.80424230     1.49000
C3082       C  0.82562562  0.53854247  0.78858794     0.93600
O3083       O  0.82560313  0.59783669  0.83380081    -0.79900
O3084       O  0.92519651  0.67290962  0.82900559    -0.73500
Al3085     Al  0.85476213  0.61212769  0.80058862     1.90100
O3086       O  0.86754782  0.63045033  0.86399147    -0.72500
O3087       O  0.95172291  0.63481293  0.84070111    -0.72400
O3088       O  0.89112312  0.58980130  0.87213840    -0.78000
O3089       O  0.94217248  0.60460545  0.80136608    -0.76200
O3090       O  0.88563251  0.60515441  0.81799564    -1.12400
O3091       O  0.89290417  0.58521192  0.76432989    -0.71600
C3092       C  0.89161582  0.61011381  0.75295743     0.99200
C3093       C  0.83562400  0.61262475  0.85801833     0.95600
Al3094     Al  0.90729191  0.62994775  0.84904848     1.55600
O3095       O  0.82673896  0.56661489  0.78415938    -0.76200
C3096       C  0.96295194  0.62689385  0.81878277     0.99700
C3097       C  0.90673722  0.68162742  0.81575950     0.94600
O3098       O  0.87555718  0.65970195  0.81046060    -0.81500
O3099       O  0.88290617  0.76317728  0.93464159    -0.81000
C3100       C  0.95835719  0.86053391  0.52409162     0.98400
O3101       O  0.96618513  0.86178608  0.49783834    -0.70100
O3102       O  0.97134782  0.83173593  0.96706848    -0.73700
Al3103     Al  0.93252009  0.83678316  0.96666707     1.49000
C3104       C  0.97243604  0.80793688  0.95384954     0.93600
O3105       O  0.91626506  0.74565475  0.00277885    -0.79900
O3106       O  0.84641653  0.75635162  0.50525743    -0.73500
Al3107     Al  0.90023083  0.75724694  0.96919658     1.90100
O3108       O  0.90409348  0.77381547  0.53881513    -0.72500
O3109       O  0.86714722  0.82115115  0.49979471    -0.72400
O3110       O  0.92757869  0.84031278  0.53332636    -0.78000
O3111       O  0.89693694  0.84660452  0.96403770    -0.76200
O3112       O  0.90591391  0.79639787  0.98436140    -1.12400
O3113       O  0.92056725  0.81870505  0.92872888    -0.71600
C3114       C  0.89782038  0.78962570  0.91889089     0.99200
C3115       C  0.90751552  0.74888289  0.53157959     0.95600
Al3116     Al  0.88843421  0.79842805  0.51671448     1.55600
O3117       O  0.94592615  0.77785093  0.95224496    -0.76200
C3118       C  0.87906021  0.84750243  0.98454914     0.99700
C3119       C  0.83140786  0.73746388  0.98725737     0.94600
O3120       O  0.85324252  0.72905103  0.98083356    -0.81500
C3121       C  0.49876509  0.86927789  0.56378463    -0.15600
C3122       C  0.98688240  0.88393419  0.54312571    -0.30800
H3123       H  0.48372654  0.84355785  0.57330583     0.13400
H3124       H  0.00345033  0.91016999  0.53495118     0.14000
C3125       C  0.59181297  0.79925237  0.53341178    -0.15600
C3126       C  0.58861699  0.80700843  0.56096384    -0.30800
H3127       H  0.59425093  0.81658702  0.51611387     0.13400
H3128       H  0.58527540  0.78938317  0.57831082     0.14000
C3129       C  0.72419840  0.92452747  0.62356832    -0.15600
C3130       C  0.69321864  0.92021017  0.63002507    -0.30800
H3131       H  0.73308166  0.92854910  0.60130747     0.13400
H3132       H  0.68367105  0.91423235  0.65208915     0.14000
C3133       C  0.80592919  0.01121788  0.74197126    -0.15600
C3134       C  0.80354207  0.50756031  0.77130020    -0.30800
H3135       H  0.81196773  0.03576056  0.73247525     0.13400
H3136       H  0.79816886  0.48291467  0.78021007     0.14000
C3137       C  0.70327921  0.79807555  0.72505177    -0.15600
C3138       C  0.70815134  0.80961248  0.69758951    -0.30800
H3139       H  0.72253213  0.81284796  0.74129989     0.13400
H3140       H  0.68924216  0.79433521  0.68125578     0.14000
C3141       C  0.59157763  0.69930497  0.61767787    -0.15600
C3142       C  0.61131060  0.72350196  0.63714612    -0.30800
H3143       H  0.56771833  0.67607524  0.62440875     0.13400
H3144       H  0.63475200  0.74710355  0.63029527     0.14000
C3145       C  0.51574276  0.63474950  0.79356466    -0.15600
C3146       C  0.00069785  0.64545880  0.81209578    -0.30800
H3147       H  0.49853281  0.60910245  0.78467351     0.13400
H3148       H  0.01755393  0.67053313  0.82201411     0.14000
C3149       C  0.78786608  0.70501058  0.95061317    -0.15600
C3150       C  0.79542946  0.71356300  0.97867448    -0.30800
H3151       H  0.80582921  0.72157541  0.93390663     0.13400
H3152       H  0.77725300  0.69755094  0.99545699     0.14000
C3153       C  0.77779264  0.60039632  0.87308404    -0.15600
C3154       C  0.81049224  0.61046479  0.87971314    -0.30800
H3155       H  0.76892161  0.59295378  0.85112923     0.13400
H3156       H  0.81990912  0.61985262  0.90124660     0.14000
C3157       C  0.60889396  0.63883857  0.95521069    -0.15600
C3158       C  0.63763140  0.65141482  0.93885648    -0.30800
H3159       H  0.59331720  0.61107922  0.95909864     0.13400
H3160       H  0.65450626  0.67934870  0.93664490     0.14000
C3161       C  0.68480853  0.50349779  0.98377209    -0.15600
C3162       C  0.69065119  0.01220113  0.51295481    -0.30800
H3163       H  0.67392813  0.47722424  0.97574209     0.13400
H3164       H  0.69689404  0.03769838  0.52027697     0.14000
C3165       C  0.63979438  0.50772456  0.64646613    -0.15600
C3166       C  0.61318176  0.99288672  0.62709164    -0.30800
H3167       H  0.65118131  0.49358101  0.65503330     0.13400
H3168       H  0.60255995  0.00797138  0.61890663     0.14000
C3169       C  0.71027347  0.60634605  0.54888590    -0.15600
C3170       C  0.68654232  0.60369524  0.53037691    -0.30800
H3171       H  0.73197636  0.60429601  0.54139653     0.13400
H3172       H  0.66526991  0.60655959  0.53769576     0.14000
C3173       C  0.69825630  0.70664212  0.56911440    -0.15600
C3174       C  0.69153560  0.70108678  0.59749153    -0.30800
H3175       H  0.71644291  0.70124462  0.55848266     0.13400
H3176       H  0.67134436  0.70444302  0.60691677     0.14000
C3177       C  0.63183794  0.62331702  0.70618091    -0.15600
C3178       C  0.64195116  0.64746764  0.72687243    -0.30800
H3179       H  0.60610206  0.61266893  0.69732092     0.13400
H3180       H  0.66729894  0.65859261  0.73651435     0.14000
C3181       C  0.58914402  0.81601552  0.79320327    -0.15600
C3182       C  0.59516207  0.79058701  0.79947216    -0.30800
H3183       H  0.58303978  0.81896198  0.77122986     0.13400
H3184       H  0.60297387  0.78875353  0.82111746     0.14000
C3185       C  0.00389721  0.81768246  0.93714141    -0.15600
C3186       C  0.50439339  0.81190636  0.91193094    -0.30800
H3187       H  0.02783322  0.83930488  0.94548419     0.13400
H3188       H  0.48041635  0.79110963  0.90301859     0.14000
C3189       C  0.63875203  0.51067426  0.85442482    -0.15600
C3190       C  0.62427876  0.52657539  0.86788096    -0.30800
H3191       H  0.66982266  0.02431177  0.85503169     0.13400
H3192       H  0.59633875  0.51294688  0.87012130     0.14000
C3193       C  0.60717422  0.91879229  0.95205288    -0.15600
C3194       C  0.60685362  0.89699779  0.97178605    -0.30800
H3195       H  0.61053787  0.94355470  0.95855961     0.13400
H3196       H  0.60411816  0.87249446  0.96535245     0.14000
C3197       C  0.92010391  0.71763653  0.80724654    -0.15600
C3198       C  0.91731997  0.72475480  0.77965836    -0.30800
H3199       H  0.92201219  0.73524409  0.82416263     0.13400
H3200       H  0.91494820  0.70702030  0.76269773     0.14000
C3201       C  0.79899775  0.71292166  0.72485819    -0.15600
C3202       C  0.79613974  0.71328683  0.69627613    -0.30800
H3203       H  0.77909524  0.69115634  0.73726083     0.13400
H3204       H  0.81487169  0.73601895  0.68408915     0.14000
C3205       C  0.51478702  0.89741903  0.79768981    -0.15600
C3206       C  0.99995478  0.87306162  0.77481649    -0.30800
H3207       H  0.49968619  0.90722012  0.80760645     0.13400
H3208       H  0.01301939  0.86061308  0.76576528     0.14000
C3209       C  0.90335508  0.81366224  0.87103442    -0.15600
C3210       C  0.88943163  0.78603131  0.88842129    -0.30800
H3211       H  0.91985872  0.83967700  0.87947322     0.13400
H3212       H  0.87152711  0.76026200  0.88010805     0.14000
C3213       C  0.88466393  0.87773479  0.70896815    -0.15600
C3214       C  0.85621127  0.86503146  0.69276552    -0.30800
H3215       H  0.89920745  0.90532980  0.71365829     0.13400
H3216       H  0.84044394  0.83729490  0.68899988     0.14000
C3217       C  0.71805213  0.92376860  0.88656728    -0.15600
C3218       C  0.70401924  0.91968819  0.86003119    -0.30800
H3219       H  0.70525932  0.92699486  0.90517235     0.13400
H3220       H  0.71759921  0.91818379  0.84120499     0.14000
C3221       C  0.69094817  0.79764974  0.95741493    -0.15600
C3222       C  0.71966108  0.82788393  0.96393771    -0.30800
H3223       H  0.68508324  0.79034456  0.93495444     0.13400
H3224       H  0.72571277  0.83522776  0.98636769     0.14000
C3225       C  0.79627100  0.80652214  0.84883729    -0.15600
C3226       C  0.80281981  0.81589589  0.82085715    -0.30800
H3227       H  0.80097187  0.78702812  0.85756582     0.13400
H3228       H  0.79991039  0.83700152  0.81318935     0.14000
C3229       C  0.87246524  0.89434693  0.96511768    -0.15600
C3230       C  0.85867317  0.86422801  0.97974264    -0.30800
H3231       H  0.90023587  0.90891953  0.96138605     0.13400
H3232       H  0.83088321  0.84857564  0.98313133     0.14000
C3233       C  0.88074892  0.50727099  0.88564105    -0.15600
C3234       C  0.87549233  0.53375784  0.88798269    -0.30800
H3235       H  0.90251197  0.00993611  0.87127428     0.13400
H3236       H  0.85744459  0.53290308  0.90402729     0.14000
C3237       C  0.79144828  0.90006486  0.78519431    -0.15600
C3238       C  0.81823557  0.91503732  0.80301386    -0.30800
H3239       H  0.76548459  0.88221600  0.79333984     0.13400
H3240       H  0.84372046  0.93471319  0.79512269     0.14000
C3241       C  0.80458514  0.59880419  0.61663480    -0.15600
C3242       C  0.79244707  0.59740614  0.64351448    -0.30800
H3243       H  0.79094134  0.60070235  0.59826422     0.13400
H3244       H  0.80496062  0.59414798  0.66204451     0.14000
C3245       C  0.90951693  0.72665375  0.55400838    -0.15600
C3246       C  0.91252659  0.69937366  0.54685807    -0.30800
H3247       H  0.90637016  0.73145374  0.57643855     0.13400
H3248       H  0.91565395  0.69486462  0.52432427     0.14000
C3249       C  0.98734800  0.62078009  0.54240440    -0.15600
C3250       C  0.49889317  0.64387508  0.52373197    -0.30800
H3251       H  0.00212145  0.60865739  0.54728518     0.13400
H3252       H  0.48501777  0.65725192  0.52006978     0.14000
C3253       C  0.49759882  0.69438444  0.68749028    -0.15600
C3254       C  0.00306929  0.70673959  0.65855406    -0.30800
H3255       H  0.47288429  0.67285103  0.69505109     0.13400
H3256       H  0.02852256  0.72482445  0.64964964     0.14000
C3257       C  0.86458195  0.50719385  0.61181868    -0.15600
C3258       C  0.87752762  0.99411962  0.62961079    -0.30800
H3259       H  0.83757567  0.49154652  0.60575514     0.13400
H3260       H  0.90416386  0.01063747  0.63638627     0.14000
C3261       C  0.90281974  0.59818893  0.70365443    -0.15600
C3262       C  0.90065123  0.61928400  0.72272042    -0.30800
H3263       H  0.89916000  0.57341289  0.71040879     0.13400
H3264       H  0.90387875  0.64380167  0.71566824     0.14000
loop_ 
_geom_bond_atom_site_label_1 
_geom_bond_atom_site_label_2 
_geom_bond_distance 
_geom_bond_site_symmetry_2 
_ccdc_geom_bond_type 
O1           C16   1.270       .  A
O1           Al9   1.923       .  S
C2           O12   1.270       .  A
C2            O3   1.260       .  A
C2          C393   1.462       .  S
O3           Al5   1.869       .  S
O4            C6   1.261       .  A
O4           Al5   1.908       .  S
Al5          O13   1.910       .  S
Al5          O15   1.892       .  S
Al5          O14   1.779       .  S
C6           O19   1.257       .  A
C6          C398   1.461       .  S
O7           C17   1.269       .  A
O7           Al9   1.941       .  S
O8           C21   1.265       .  A
O8          Al18   1.938       .  S
Al9          O22   1.865       .  S
Al9          O19   1.897       .  S
Al9          O14   1.774       .  S
O10          C17   1.260       .  A
O10         Al18   1.892       .  S
O11          C20   1.260       .  A
O11         Al18   1.911       .  S
O12         Al18   1.947       .  S
O13          C20   1.260       .  A
O14         Al18   1.780       .  S
O15          C16   1.260       .  A
C16         C405   1.470       .  S
C17         C390   1.481       .  S
C20         C401   1.478       .  S
C21          O22   1.252       .  A
C21         C385   1.468       .  S
O23          C38   1.271       .  A
O23         Al31   1.922       .  S
C24          O34   1.280       .  A
C24          O25   1.261       .  A
C24         C373   1.473       .  S
O25         Al27   1.868       .  S
O26          C28   1.255       .  A
O26         Al27   1.884       .  S
Al27         O35   1.905       .  S
Al27         O37   1.881       .  S
Al27         O36   1.781       .  S
C28          O41   1.254       .  A
C28         C369   1.458       .  S
O29          C39   1.268       .  A
O29         Al31   1.926       .  S
O30          C43   1.272       .  A
O30         Al40   1.968       .  S
Al31         O44   1.864       .  S
Al31         O41   1.900       .  S
Al31         O36   1.777       .  S
O32          C39   1.260       .  A
O32         Al40   1.895       .  S
O33          C42   1.263       .  A
O33         Al40   1.933       .  S
O34         Al40   1.982       .  S
O35          C42   1.254       .  A
O36         Al40   1.778       .  S
O37          C38   1.263       .  A
C38         C382   1.458       .  S
C39         C366   1.483       .  S
C42        C1193   1.478       .  S
C43          O44   1.250       .  A
C43         C361   1.489       .  S
O45          C60   1.255       .  A
O45         Al53   1.881       .  S
C46          O56   1.261       .  A
C46          O47   1.249       .  A
C46         C357   1.474       .  S
O47         Al49   1.876       .  S
O48          C50   1.266       .  A
O48         Al49   1.900       .  S
Al49         O57   1.869       .  S
Al49         O59   1.885       .  S
Al49         O58   1.786       .  S
C50          O63   1.262       .  A
C50         C370   1.459       .  S
O51          C61   1.257       .  A
O51         Al53   1.882       .  S
O52          C65   1.260       .  A
O52         Al62   1.918       .  S
Al53         O66   1.864       .  S
Al53         O63   1.901       .  S
Al53         O58   1.789       .  S
O54          C61   1.268       .  A
O54         Al62   1.930       .  S
O55          C64   1.274       .  A
O55         Al62   1.961       .  S
O56         Al62   1.941       .  S
O57          C64   1.262       .  A
O58         Al62   1.788       .  S
O59          C60   1.251       .  A
C60         C353   1.451       .  S
C61         C345   1.478       .  S
C64         C350   1.488       .  S
C65          O66   1.253       .  A
C65         C342   1.466       .  S
O67          C82   1.268       .  A
O67         Al75   1.919       .  S
C68          O78   1.277       .  A
C68          O69   1.260       .  A
C68         C349   1.480       .  S
O69         Al71   1.872       .  S
O70          C72   1.262       .  A
O70         Al71   1.913       .  S
Al71         O79   1.926       .  S
Al71         O81   1.887       .  S
Al71         O80   1.780       .  S
C72          O85   1.260       .  A
C72         C330   1.469       .  S
O73          C83   1.268       .  A
O73         Al75   1.941       .  S
O74          C87   1.273       .  A
O74         Al84   1.968       .  S
Al75         O88   1.877       .  S
Al75         O85   1.907       .  S
Al75         O80   1.782       .  S
O76          C83   1.257       .  A
O76         Al84   1.887       .  S
O77          C86   1.258       .  A
O77         Al84   1.908       .  S
O78         Al84   1.979       .  S
O79          C86   1.261       .  A
O80         Al84   1.777       .  S
O81          C82   1.261       .  A
C82         C337   1.462       .  S
C83         C325   1.483       .  S
C86        C1149   1.484       .  S
C87          O88   1.254       .  A
C87         C362   1.487       .  S
O89         C104   1.255       .  A
O89         Al97   1.878       .  S
C90         O100   1.263       .  A
C90          O91   1.256       .  A
C90         C321   1.472       .  S
O91         Al93   1.893       .  S
O92          C94   1.260       .  A
O92         Al93   1.890       .  S
Al93        O101   1.868       .  S
Al93        O103   1.904       .  S
Al93        O102   1.775       .  S
C94         O107   1.262       .  A
C94         C318   1.460       .  S
O95         C105   1.260       .  A
O95         Al97   1.885       .  S
O96         C109   1.260       .  A
O96        Al106   1.909       .  S
Al97        O110   1.885       .  S
Al97        O107   1.922       .  S
Al97        O102   1.784       .  S
O98         C105   1.271       .  A
O98        Al106   1.944       .  S
O99         C108   1.272       .  A
O99        Al106   1.965       .  S
O100       Al106   1.927       .  S
O101        C108   1.259       .  A
O102       Al106   1.782       .  S
O103        C104   1.261       .  A
C104        C313   1.453       .  S
C105        C346   1.479       .  S
C108        C309   1.489       .  S
C109        O110   1.258       .  A
C109        C386   1.463       .  S
O111        C534   1.266       .  A
O111       Al119   1.907       .  S
C112        O122   1.274       .  A
C112        O113   1.259       .  A
C112        C334   1.469       .  S
O113       Al115   1.864       .  S
O114        C116   1.265       .  A
O114       Al115   1.927       .  S
Al115       O123   1.927       .  S
Al115       O125   1.880       .  S
Al115       O124   1.782       .  S
C116        O129   1.258       .  A
C116        C305   1.466       .  S
O117        C127   1.263       .  A
O117       Al119   1.922       .  S
O118        C131   1.270       .  A
O118       Al128   1.960       .  S
Al119       O132   1.847       .  S
Al119       O129   1.894       .  S
Al119       O124   1.776       .  S
O120        C127   1.256       .  A
O120       Al128   1.888       .  S
O121        C130   1.257       .  A
O121       Al128   1.904       .  S
O122       Al128   1.958       .  S
O123        C130   1.262       .  A
O124       Al128   1.778       .  S
O125        C534   1.259       .  A
C126        O519   1.265       .  A
C126        O533   1.260       .  A
C126        C314   1.455   1_556  S
C127        C297   1.473       .  S
C130        C302   1.486       .  S
C131        O132   1.251       .  A
C131        C293   1.473       .  S
O133        C148   1.261       .  A
O133       Al141   1.899       .  S
C134        O144   1.266       .  A
C134        O135   1.261       .  A
C134        C289   1.482       .  S
O135       Al137   1.911       .  S
O136        C138   1.257       .  A
O136       Al137   1.887       .  S
Al137       O145   1.873       .  S
Al137       O147   1.922       .  S
Al137       O146   1.773       .  S
C138        O151   1.259       .  A
C138        C397   1.457   1_455  S
O139        C149   1.268       .  A
O139       Al141   1.915       .  S
O140        C153   1.265       .  A
O140       Al150   1.926       .  S
Al141       O154   1.888       .  S
Al141       O151   1.911       .  S
Al141       O146   1.784       .  S
O142        C149   1.264       .  A
O142       Al150   1.920       .  S
O143        C152   1.264       .  A
O143       Al150   1.941       .  S
O144       Al150   1.933       .  S
O145        C152   1.258       .  A
O146       Al150   1.781       .  S
O147        C148   1.265       .  A
C148        C286   1.473       .  S
C149        C326   1.482       .  S
C152        C322   1.482       .  S
C153        O154   1.259       .  A
C153        C281   1.467       .  S
O155        C170   1.258       .  A
O155       Al163   1.882       .  S
C156        O166   1.262       .  A
C156        O157   1.261       .  A
C156        C402   1.470       .  S
O157       Al159   1.905       .  S
O158        C160   1.259       .  A
O158       Al159   1.901       .  S
Al159       O167   1.880       .  S
Al159       O169   1.905       .  S
Al159       O168   1.776       .  S
C160        O173   1.260       .  A
C160        C277   1.471       .  S
O161        C171   1.268       .  A
O161       Al163   1.912       .  S
O162        C175   1.259       .  A
O162       Al172   1.910       .  S
Al163       O176   1.901       .  S
Al163       O173   1.924       .  S
Al163       O168   1.789       .  S
O164        C171   1.266       .  A
O164       Al172   1.921       .  S
O165        C174   1.261       .  A
O165       Al172   1.931       .  S
O166       Al172   1.908       .  S
O167        C174   1.259       .  A
O168       Al172   1.783       .  S
O169        C170   1.264       .  A
C170        C381   1.458       .  S
C171        C273   1.479       .  S
C174        C358   1.484       .  S
C175        O176   1.260       .  A
C175        C282   1.464       .  S
O177        C192   1.267       .  A
O177       Al185   1.928       .  S
C178        O188   1.273       .  A
C178        O179   1.259       .  A
C178        C301   1.474       .  S
O179       Al589   1.874       .  S
O180        C182   1.263       .  A
O180       Al181   1.904       .  S
Al181       O189   1.915       .  S
Al181       O191   1.897       .  S
Al181       O587   1.873       .  S
Al181       O190   1.778       .  S
C182        O195   1.259       .  A
C182        C317   1.461       .  S
O183        C601   1.266   1_554  A
O183       Al185   1.937       .  S
O184        C605   1.269       .  A
O184       Al194   1.954       .  S
Al185       O198   1.867       .  S
Al185       O195   1.902       .  S
Al185       O190   1.781       .  S
O186        C193   1.256       .  A
O186       Al194   1.879       .  S
O187        C604   1.256       .  A
O187       Al194   1.894       .  S
O188       Al194   1.962       .  S
O189        C196   1.261       .  A
O190       Al602   1.782   1_554  S
O191        C192   1.262       .  A
C192        C285   1.473       .  S
C193        O591   1.269       .  A
C193        C365   1.480       .  S
Al194       O598   1.781       .  S
C196        O595   1.256       .  A
C196        C394   1.477   1_455  S
C197        O198   1.254       .  A
C197        O592   1.271       .  A
C197        C269   1.477       .  S
O199        C214   1.260       .  A
O199       Al207   1.887       .  S
C200        O210   1.265       .  A
C200        O201   1.262       .  A
C200        C310   1.478       .  S
O201       Al203   1.907       .  S
O202        C204   1.256       .  A
O202       Al203   1.890       .  S
Al203       O211   1.881       .  S
Al203       O213   1.919       .  S
Al203       O212   1.775       .  S
C204        O217   1.259       .  A
C204        C306   1.463       .  S
O205        C215   1.268       .  A
O205       Al207   1.915       .  S
O206        C219   1.266       .  A
O206       Al216   1.930       .  S
Al207       O220   1.893       .  S
Al207       O217   1.918       .  S
Al207       O212   1.788       .  S
O208        C215   1.265       .  A
O208       Al216   1.918       .  S
O209        C218   1.264       .  A
O209       Al216   1.940       .  S
O210       Al216   1.929       .  S
O211        C218   1.258       .  A
O212       Al216   1.781       .  S
O213        C214   1.266       .  A
C214        C746   1.463   1_554  S
C215        C274   1.479       .  S
C218        C265   1.484   1_455  S
C219        O220   1.259       .  A
C219        C270   1.471       .  S
O221        C236   1.257       .  A
O221       Al229   1.864       .  S
C222        O232   1.259       .  A
C222        O223   1.267       .  A
C222        C378   1.480       .  S
O223       Al225   1.930       .  S
O224        C226   1.254       .  A
O224       Al225   1.890       .  S
Al225       O233   1.878       .  S
Al225       O235   1.945       .  S
Al225       O234   1.775       .  S
C226        O239   1.259       .  A
C226        C278   1.466       .  S
O227        C237   1.266       .  A
O227       Al229   1.899       .  S
O228        C241   1.261       .  A
O228       Al238   1.911       .  S
Al229       O242   1.902       .  S
Al229       O239   1.922       .  S
Al229       O234   1.783       .  S
O230        C237   1.267       .  A
O230       Al238   1.928       .  S
O231        C240   1.263       .  A
O231       Al238   1.934       .  S
O232       Al238   1.895       .  S
O233        C240   1.257       .  A
O234       Al238   1.781       .  S
O235        C236   1.271       .  A
C236        C406   1.461       .  S
C237        C298   1.474       .  S
C240        C290   1.484       .  S
C241        O242   1.262       .  A
C241        C341   1.465       .  S
O243        C258   1.254       .  A
O243       Al251   1.869       .  S
C244        O254   1.267       .  A
C244        O245   1.261       .  A
C244        C266   1.476       .  S
O245       Al655   1.905   1_554  S
O246        C248   1.257       .  A
O246       Al247   1.888       .  S
Al247       O255   1.885       .  S
Al247       O257   1.907       .  S
Al247       O653   1.907       .  S
Al247       O256   1.772       .  S
C248        O261   1.262       .  A
C248        C329   1.464       .  S
O249        C667   1.265       .  A
O249       Al251   1.905       .  S
O250        C671   1.265   1_554  A
O250       Al260   1.919       .  S
Al251       O264   1.903       .  S
Al251       O261   1.925       .  S
Al251       O256   1.787       .  S
O252        C259   1.265       .  A
O252       Al260   1.927       .  S
O253        C670   1.265   1_554  A
O253       Al260   1.944       .  S
O254       Al260   1.928       .  S
O255        C262   1.258       .  A
O256       Al668   1.778       .  S
O257        C258   1.264       .  A
C258        C354   1.455       .  S
C259        O657   1.265       .  A
C259        C389   1.481       .  S
Al260       O664   1.778   1_554  S
C262        O661   1.265       .  A
C262        C374   1.481       .  S
C263        O264   1.264       .  A
C263        O658   1.264       .  A
C263        C294   1.465       .  S
C265        H267   1.087       .  S
C265       C1898   1.345       .  D
C266        H268   1.088       .  S
C266       C1897   1.345       .  D
C269        H271   1.087       .  S
C269        C270   1.353       .  D
C270        H272   1.086       .  S
C273        H275   1.088       .  S
C273        C274   1.341       .  D
C274        H276   1.087       .  S
C277        H279   1.087       .  S
C277       C1094   1.351       .  D
C278        H280   1.088   1_545  S
C278       C1093   1.348       .  D
C281        H283   1.087       .  S
C281        C282   1.348       .  D
C282        H284   1.087       .  S
C285        H287   1.088       .  S
C285        C286   1.345       .  D
C286        H288   1.087       .  S
C289        H291   1.088   1_455  S
C289       C1922   1.348       .  D
C290        H292   1.087       .  S
C290       C1921   1.345       .  D
C293        H295   1.086       .  S
C293        C294   1.352       .  D
C294        H296   1.087       .  S
C297        H299   1.087       .  S
C297        C298   1.341       .  D
C298        H300   1.087       .  S
C301        H303   1.086       .  S
C301        C302   1.345       .  D
C302        H304   1.087       .  S
C305        H307   1.087   1_545  S
C305       C1530   1.350       .  D
C306        H308   1.086       .  S
C306       C1529   1.350   1_554  D
C309        H311   1.086   1_545  S
C309       C1126   1.350   1_545  D
C310        H312   1.088       .  S
C310       C1125   1.350       .  D
C313        H315   1.087       .  S
C313        C314   1.339       .  D
C314        H316   1.088       .  S
C317        H319   1.086       .  S
C317        C318   1.345       .  D
C318        H320   1.089       .  S
C321        H323   1.089       .  S
C321        C322   1.343       .  D
C322        H324   1.086       .  S
C325        H327   1.087       .  S
C325        C326   1.342       .  D
C326        H328   1.087       .  S
C329        H331   1.087       .  S
C329       C1962   1.348       .  D
C330        H332   1.086   1_455  S
C330       C1961   1.349       .  D
C333        C902   1.483   1_545  S
C333       H1151   1.087       .  S
C333        C334   1.346       .  D
C334        H336   1.086       .  S
H335       C1149   1.087       .  S
C337        H339   1.088       .  S
C337        C338   1.340       .  D
C338        C622   1.459       .  S
C338        H340   1.088       .  S
C341        H343   1.087       .  S
C341        C342   1.347       .  D
C342        H344   1.087       .  S
C345        H347   1.087       .  S
C345        C346   1.339       .  D
C346        H348   1.087       .  S
C349        H351   1.087   1_455  S
C349       C1982   1.350   1_455  D
C350        H352   1.086       .  S
C350       C1981   1.347       .  D
C353        H355   1.086       .  S
C353        C354   1.333       .  D
C354        H356   1.087       .  S
C357        H359   1.089       .  S
C357        C358   1.341       .  D
C358        H360   1.087       .  S
C361        H363   1.086       .  S
C361        C362   1.361       .  D
C362        H364   1.087       .  S
C365        H367   1.087       .  S
C365        C366   1.343       .  D
C366        H368   1.086       .  S
C369        H371   1.086       .  S
C369        C370   1.347       .  D
C370        H372   1.089       .  S
C373        H375   1.087       .  S
C373        C374   1.345       .  D
C374        H376   1.086       .  S
C377        C858   1.478   1_545  S
C377       H1195   1.087       .  S
C377        C378   1.340       .  D
C378        H380   1.086       .  S
H379       C1193   1.087       .  S
C381        H383   1.088       .  S
C381        C382   1.339       .  D
C382        H384   1.088       .  S
C385        H387   1.087       .  S
C385        C386   1.347       .  D
C386        H388   1.086       .  S
C389        H391   1.087       .  S
C389        C390   1.344       .  D
C390        H392   1.087       .  S
C393        H395   1.087       .  S
C393       C2026   1.341       .  D
C394        H396   1.088       .  S
C394       C2025   1.341       .  D
C397        H399   1.087       .  S
C397       C2030   1.346   1_655  D
C398        H400   1.087       .  S
C398       C2029   1.346       .  D
C401        H403   1.087   1_545  S
C401       C1218   1.345   1_545  D
C402        H404   1.086       .  S
C402       C1217   1.344       .  D
C405        H407   1.088       .  S
C405        C406   1.338       .  D
C406        H408   1.088       .  S
O409        C424   1.268       .  A
O409       Al417   1.912       .  S
C410        O420   1.270       .  A
C410        O411   1.260       .  A
C410        C801   1.460       .  S
O411       Al413   1.867       .  S
O412        C414   1.262       .  A
O412       Al413   1.910       .  S
Al413       O421   1.910       .  S
Al413       O423   1.888       .  S
Al413       O422   1.778       .  S
C414        O427   1.257       .  A
C414        C806   1.461       .  S
O415        C425   1.268       .  A
O415       Al417   1.938       .  S
O416        C429   1.267       .  A
O416       Al426   1.947       .  S
Al417       O430   1.864       .  S
Al417       O427   1.896       .  S
Al417       O422   1.773       .  S
O418        C425   1.259       .  A
O418       Al426   1.891       .  S
O419        C428   1.260       .  A
O419       Al426   1.905       .  S
O420       Al426   1.945       .  S
O421        C428   1.261       .  A
O422       Al426   1.778       .  S
O423        C424   1.259       .  A
C424        C813   1.463       .  S
C425        C798   1.479       .  S
C428        C809   1.474       .  S
C429        O430   1.252       .  A
C429        C793   1.471       .  S
O431        C446   1.272       .  A
O431       Al439   1.920       .  S
C432        O442   1.280       .  A
C432        O433   1.260       .  A
C432        C781   1.474       .  S
O433       Al435   1.868       .  S
O434        C436   1.254       .  A
O434       Al435   1.881       .  S
Al435       O443   1.907       .  S
Al435       O445   1.883       .  S
Al435       O444   1.783       .  S
C436        O449   1.254       .  A
C436        C777   1.458       .  S
O437        C447   1.267       .  A
O437       Al439   1.921       .  S
O438        C451   1.269       .  A
O438       Al448   1.958       .  S
Al439       O452   1.868       .  S
Al439       O449   1.902       .  S
Al439       O444   1.776       .  S
O440        C447   1.260       .  A
O440       Al448   1.895       .  S
O441        C450   1.263       .  A
O441       Al448   1.932       .  S
O442       Al448   1.982       .  S
O443        C450   1.255       .  A
O444       Al448   1.781       .  S
O445        C446   1.264       .  A
C446        C790   1.460       .  S
C447        C774   1.480       .  S
C450       C1601   1.479       .  S
C451        O452   1.251       .  A
C451        C769   1.485       .  S
O453        C468   1.256       .  A
O453       Al461   1.874       .  S
C454        O464   1.260       .  A
C454        O455   1.253       .  A
C454        C765   1.474       .  S
O455       Al457   1.889       .  S
O456        C458   1.265       .  A
O456       Al457   1.902       .  S
Al457       O465   1.873       .  S
Al457       O467   1.891       .  S
Al457       O466   1.784       .  S
C458        O471   1.260       .  A
C458        C778   1.460       .  S
O459        C469   1.256       .  A
O459       Al461   1.874       .  S
O460        C473   1.257       .  A
O460       Al470   1.906       .  S
Al461       O474   1.873       .  S
Al461       O471   1.899       .  S
Al461       O466   1.790       .  S
O462        C469   1.269       .  A
O462       Al470   1.931       .  S
O463        C472   1.272       .  A
O463       Al470   1.958       .  S
O464       Al470   1.928       .  S
O465        C472   1.260       .  A
O466       Al470   1.788       .  S
O467        C468   1.254       .  A
C468        C761   1.449       .  S
C469        C753   1.472       .  S
C472        C758   1.491       .  S
C473        O474   1.255       .  A
C473        C750   1.461       .  S
O475        C490   1.267       .  A
O475       Al483   1.920       .  S
C476        O486   1.276       .  A
C476        O477   1.260       .  A
C476        C757   1.478       .  S
O477       Al479   1.873       .  S
O478        C480   1.262       .  A
O478       Al479   1.911       .  S
Al479       O487   1.921       .  S
Al479       O489   1.891       .  S
Al479       O488   1.780       .  S
C480        O493   1.259       .  A
C480        C738   1.467       .  S
O481        C491   1.266       .  A
O481       Al483   1.932       .  S
O482        C495   1.272       .  A
O482       Al492   1.963       .  S
Al483       O496   1.872       .  S
Al483       O493   1.905       .  S
Al483       O488   1.781       .  S
O484        C491   1.257       .  A
O484       Al492   1.889       .  S
O485        C494   1.258       .  A
O485       Al492   1.909       .  S
O486       Al492   1.973       .  S
O487        C494   1.260       .  A
O488       Al492   1.781       .  S
O489        C490   1.262       .  A
C490        C745   1.465       .  S
C491        C733   1.480       .  S
C494       C1557   1.484       .  S
C495        O496   1.253       .  A
C495        C770   1.484       .  S
O497        C512   1.253       .  A
O497       Al505   1.870       .  S
C498        O508   1.264       .  A
C498        O499   1.257       .  A
C498        C729   1.476       .  S
O499       Al501   1.897       .  S
O500        C502   1.260       .  A
O500       Al501   1.890       .  S
Al501       O509   1.868       .  S
Al501       O511   1.909       .  S
Al501       O510   1.771       .  S
C502        O515   1.263       .  A
C502        C726   1.459       .  S
O503        C513   1.257       .  A
O503       Al505   1.872       .  S
O504        C517   1.261       .  A
O504       Al514   1.915       .  S
Al505       O518   1.886       .  S
Al505       O515   1.923       .  S
Al505       O510   1.782       .  S
O506        C513   1.272       .  A
O506       Al514   1.942       .  S
O507        C516   1.272       .  A
O507       Al514   1.963       .  S
O508       Al514   1.934       .  S
O509        C516   1.260       .  A
O510       Al514   1.778       .  S
O511        C512   1.262       .  A
C512        C721   1.450       .  S
C513        C754   1.471       .  S
C516        C717   1.486       .  S
C517        O518   1.258       .  A
C517        C794   1.466       .  S
O519       Al527   1.905       .  S
C520        O530   1.274       .  A
C520        O521   1.259       .  A
C520        C742   1.470       .  S
O521       Al523   1.866       .  S
O522        C524   1.264       .  A
O522       Al523   1.926       .  S
Al523       O531   1.931       .  S
Al523       O533   1.884       .  S
Al523       O532   1.783       .  S
C524        O537   1.258       .  A
C524        C713   1.466       .  S
O525        C535   1.263       .  A
O525       Al527   1.919       .  S
O526        C539   1.271       .  A
O526       Al536   1.960       .  S
Al527       O540   1.850       .  S
Al527       O537   1.895       .  S
Al527       O532   1.778       .  S
O528        C535   1.255       .  A
O528       Al536   1.888       .  S
O529        C538   1.256       .  A
O529       Al536   1.901       .  S
O530       Al536   1.959       .  S
O531        C538   1.262       .  A
O532       Al536   1.779       .  S
C534        C722   1.453       .  S
C535        C705   1.473       .  S
C538        C710   1.487       .  S
C539        O540   1.251       .  A
C539        C701   1.475       .  S
O541        C556   1.260       .  A
O541       Al549   1.892       .  S
C542        O552   1.265       .  A
C542        O543   1.263       .  A
C542        C697   1.478       .  S
O543       Al545   1.912       .  S
O544        C546   1.257       .  A
O544       Al545   1.891       .  S
Al545       O553   1.877       .  S
Al545       O555   1.926       .  S
Al545       O554   1.771       .  S
C546        O559   1.258       .  A
C546        C805   1.459   1_455  S
O547        C557   1.267       .  A
O547       Al549   1.908       .  S
O548        C561   1.263       .  A
O548       Al558   1.919       .  S
Al549       O562   1.881       .  S
Al549       O559   1.909       .  S
Al549       O554   1.784       .  S
O550        C557   1.266       .  A
O550       Al558   1.925       .  S
O551        C560   1.265       .  A
O551       Al558   1.943       .  S
O552       Al558   1.924       .  S
O553        C560   1.258       .  A
O554       Al558   1.782       .  S
O555        C556   1.266       .  A
C556        C694   1.471       .  S
C557        C734   1.479       .  S
C560        C730   1.486       .  S
C561        O562   1.258       .  A
C561        C689   1.459       .  S
O563        C578   1.259       .  A
O563       Al571   1.898       .  S
C564        O574   1.268       .  A
C564        O565   1.261       .  A
C564        C810   1.460       .  S
O565       Al567   1.870       .  S
O566        C568   1.261       .  A
O566       Al567   1.907       .  S
Al567       O575   1.911       .  S
Al567       O577   1.887       .  S
Al567       O576   1.785       .  S
C568        O581   1.261       .  A
C568        C685   1.471       .  S
O569        C579   1.262       .  A
O569       Al571   1.913       .  S
O570        C583   1.263       .  A
O570       Al580   1.926       .  S
Al571       O584   1.856       .  S
Al571       O581   1.910       .  S
Al571       O576   1.786       .  S
O572        C579   1.256       .  A
O572       Al580   1.897       .  S
O573        C582   1.254       .  A
O573       Al580   1.903       .  S
O574       Al580   1.928       .  S
O575        C582   1.259       .  A
O576       Al580   1.793       .  S
O577        C578   1.263       .  A
C578        C789   1.451       .  S
C579        C681   1.481       .  S
C582        C766   1.485       .  S
C583        O584   1.253       .  A
C583        C690   1.463       .  S
O585        C600   1.268       .  A
O585       Al593   1.933       .  S
C586        O596   1.274       .  A
C586        O587   1.259   1_556  A
C586        C709   1.476       .  S
O588        C590   1.262       .  A
O588       Al589   1.901       .  S
Al589       O597   1.916       .  S
Al589       O599   1.893       .  S
Al589       O598   1.778       .  S
C590        O603   1.259       .  A
C590        C725   1.460       .  S
O591       Al593   1.948       .  S
O592       Al602   1.959   1_554  S
Al593       O606   1.868       .  S
Al593       O603   1.901       .  S
Al593       O598   1.781       .  S
O594        C601   1.256       .  A
O594       Al602   1.883       .  S
O595       Al602   1.895   1_554  S
O596       Al602   1.965       .  S
O597        C604   1.261       .  A
O599        C600   1.261       .  A
C600        C693   1.472       .  S
C601        C773   1.478       .  S
C604        C802   1.475       .  S
C605        O606   1.253       .  A
C605        C677   1.475       .  S
O607        C622   1.258       .  A
O607       Al615   1.881       .  S
C608        O618   1.265       .  A
C608        O609   1.262       .  A
C608        C718   1.478       .  S
O609       Al611   1.909       .  S
O610        C612   1.256       .  A
O610       Al611   1.889       .  S
Al611       O619   1.880       .  S
Al611       O621   1.919       .  S
Al611       O620   1.774       .  S
C612        O625   1.259       .  A
C612        C714   1.464       .  S
O613        C623   1.267       .  A
O613       Al615   1.913       .  S
O614        C627   1.266       .  A
O614       Al624   1.927       .  S
Al615       O628   1.893       .  S
Al615       O625   1.922       .  S
Al615       O620   1.788       .  S
O616        C623   1.265       .  A
O616       Al624   1.916       .  S
O617        C626   1.264       .  A
O617       Al624   1.943       .  S
O618       Al624   1.928       .  S
O619        C626   1.258       .  A
O620       Al624   1.779       .  S
O621        C622   1.266       .  A
C623        C682   1.476       .  S
C626        C673   1.484   1_455  S
C627        O628   1.260       .  A
C627        C678   1.470       .  S
O629        C644   1.258       .  A
O629       Al637   1.862       .  S
C630        O640   1.257       .  A
C630        O631   1.266       .  A
C630        C786   1.477       .  S
O631       Al633   1.922       .  S
O632        C634   1.255       .  A
O632       Al633   1.893       .  S
Al633       O641   1.883       .  S
Al633       O643   1.936       .  S
Al633       O642   1.774       .  S
C634        O647   1.258       .  A
C634        C686   1.469       .  S
O635        C645   1.267       .  A
O635       Al637   1.897       .  S
O636        C649   1.259       .  A
O636       Al646   1.906       .  S
Al637       O650   1.899       .  S
Al637       O647   1.926       .  S
Al637       O642   1.785       .  S
O638        C645   1.269       .  A
O638       Al646   1.929       .  S
O639        C648   1.264       .  A
O639       Al646   1.940       .  S
O640       Al646   1.890       .  S
O641        C648   1.257       .  A
O642       Al646   1.781       .  S
O643        C644   1.271       .  A
C644        C814   1.453       .  S
C645        C706   1.472       .  S
C648        C698   1.490       .  S
C649        O650   1.260       .  A
C649        C749   1.460       .  S
O651        C666   1.255       .  A
O651       Al659   1.875       .  S
C652        O662   1.266       .  A
C652        O653   1.262       .  A
C652        C674   1.474       .  S
O654        C656   1.259       .  A
O654       Al655   1.891       .  S
Al655       O663   1.888       .  S
Al655       O665   1.900       .  S
Al655       O664   1.772       .  S
C656        O669   1.262       .  A
C656        C737   1.466       .  S
O657       Al659   1.907   1_554  S
O658       Al668   1.912       .  S
Al659       O672   1.900       .  S
Al659       O669   1.926       .  S
Al659       O664   1.787       .  S
O660        C667   1.264       .  A
O660       Al668   1.926       .  S
O661       Al668   1.945       .  S
O662       Al668   1.925       .  S
O663        C670   1.258       .  A
O665        C666   1.263       .  A
C666        C762   1.456       .  S
C667        C797   1.480       .  S
C670        C782   1.479       .  S
C671        O672   1.262       .  A
C671        C702   1.467       .  S
C673        H675   1.087       .  S
C673       C2306   1.345       .  D
C674        H676   1.089       .  S
C674       C2305   1.345       .  D
C677        H679   1.087       .  S
C677        C678   1.352       .  D
C678        H680   1.086       .  S
C681        H683   1.087       .  S
C681        C682   1.343       .  D
C682        H684   1.087       .  S
C685        H687   1.086       .  S
C685       C1502   1.350       .  D
C686        H688   1.089   1_545  S
C686       C1501   1.350       .  D
C689        H691   1.087       .  S
C689        C690   1.349       .  D
C690        H692   1.086       .  S
C693        H695   1.088       .  S
C693        C694   1.343       .  D
C694        H696   1.087       .  S
C697        H699   1.088   1_455  S
C697       C2330   1.348       .  D
C698        H700   1.087       .  S
C698       C2329   1.349       .  D
C701        H703   1.086       .  S
C701        C702   1.353       .  D
C702        H704   1.087       .  S
C705        H707   1.087       .  S
C705        C706   1.341       .  D
C706        H708   1.087       .  S
C709        H711   1.086       .  S
C709        C710   1.345       .  D
C710        H712   1.086       .  S
C713        H715   1.086   1_545  S
C713       C1122   1.350   1_556  D
C714        H716   1.086       .  S
C714       C1121   1.352       .  D
C717        H719   1.086   1_545  S
C717       C1534   1.348   1_545  D
C718        H720   1.088       .  S
C718       C1533   1.350       .  D
C721        H723   1.087       .  S
C721        C722   1.337       .  D
C722        H724   1.088       .  S
C725        H727   1.087       .  S
C725        C726   1.345       .  D
C726        H728   1.089       .  S
C729        H731   1.088       .  S
C729        C730   1.344       .  D
C730        H732   1.086       .  S
C733        H735   1.086       .  S
C733        C734   1.343       .  D
C734        H736   1.086       .  S
C737        H739   1.089       .  S
C737       C2370   1.350       .  D
C738        H740   1.086   1_455  S
C738       C2369   1.348       .  D
C741       C1310   1.483   1_545  S
C741       H1559   1.087       .  S
C741        C742   1.346       .  D
C742        H744   1.086       .  S
H743       C1557   1.087       .  S
C745        H747   1.088       .  S
C745        C746   1.342       .  D
C746        H748   1.088       .  S
C749        H751   1.087       .  S
C749        C750   1.344       .  D
C750        H752   1.087       .  S
C753        H755   1.087       .  S
C753        C754   1.335       .  D
C754        H756   1.087       .  S
C757        H759   1.088   1_455  S
C757       C2390   1.350   1_455  D
C758        H760   1.086       .  S
C758       C2389   1.349       .  D
C761        H763   1.087       .  S
C761        C762   1.335       .  D
C762        H764   1.087       .  S
C765        H767   1.086       .  S
C765        C766   1.343       .  D
C766        H768   1.086       .  S
C769        H771   1.087       .  S
C769        C770   1.359       .  D
C770        H772   1.087       .  S
C773        H775   1.086       .  S
C773        C774   1.343       .  D
C774        H776   1.086       .  S
C777        H779   1.086       .  S
C777        C778   1.349       .  D
C778        H780   1.089       .  S
C781        H783   1.086       .  S
C781        C782   1.345       .  D
C782        H784   1.086       .  S
C785       C1266   1.475   1_545  S
C785       H1603   1.087       .  S
C785        C786   1.337       .  D
C786        H788   1.086       .  S
H787       C1601   1.087       .  S
C789        H791   1.087       .  S
C789        C790   1.335       .  D
C790        H792   1.088       .  S
C793        H795   1.087       .  S
C793        C794   1.350       .  D
C794        H796   1.086       .  S
C797        H799   1.087       .  S
C797        C798   1.343       .  D
C798        H800   1.087       .  S
C801        H803   1.087       .  S
C801       C2434   1.340       .  D
C802        H804   1.088   1_455  S
C802       C2433   1.340   1_455  D
C805        H807   1.087       .  S
C805       C2438   1.347   1_655  D
C806        H808   1.086       .  S
C806       C2437   1.347       .  D
C809        H811   1.088   1_545  S
C809       C1626   1.343   1_545  D
C810        H812   1.087       .  S
C810       C1625   1.344       .  D
C813        H815   1.088       .  S
C813        C814   1.337       .  D
C814        H816   1.088       .  S
O817        C832   1.268       .  A
O817       Al825   1.923       .  S
C818        O828   1.270       .  A
C818        O819   1.259       .  A
C818       C1209   1.465       .  S
O819       Al821   1.869       .  S
O820        C822   1.263       .  A
O820       Al821   1.914       .  S
Al821       O829   1.917       .  S
Al821       O831   1.891       .  S
Al821       O830   1.781       .  S
C822        O835   1.258       .  A
C822       C1214   1.463       .  S
O823        C833   1.269       .  A
O823       Al825   1.947       .  S
O824        C837   1.267       .  A
O824       Al834   1.942       .  S
Al825       O838   1.870       .  S
Al825       O835   1.898       .  S
Al825       O830   1.776       .  S
O826        C833   1.258       .  A
O826       Al834   1.889       .  S
O827        C836   1.258       .  A
O827       Al834   1.901       .  S
O828       Al834   1.948       .  S
O829        C836   1.262       .  A
O830       Al834   1.780       .  S
O831        C832   1.260       .  A
C832       C1221   1.469       .  S
C833       C1206   1.483       .  S
C836       C1217   1.478       .  S
C837        O838   1.254       .  A
C837       C1201   1.471       .  S
O839        C854   1.270       .  A
O839       Al847   1.918       .  S
C840        O850   1.278       .  A
C840        O841   1.259       .  A
C840       C1189   1.475       .  S
O841       Al843   1.871       .  S
O842        C844   1.255       .  A
O842       Al843   1.883       .  S
Al843       O851   1.911       .  S
Al843       O853   1.883       .  S
Al843       O852   1.784       .  S
C844        O857   1.254       .  A
C844       C1185   1.458       .  S
O845        C855   1.269       .  A
O845       Al847   1.928       .  S
O846        C859   1.270       .  A
O846       Al856   1.963       .  S
Al847       O860   1.875       .  S
Al847       O857   1.898       .  S
Al847       O852   1.776       .  S
O848        C855   1.260       .  A
O848       Al856   1.893       .  S
O849        C858   1.263       .  A
O849       Al856   1.922       .  S
O850       Al856   1.979       .  S
O851        C858   1.257       .  A
O852       Al856   1.782       .  S
O853        C854   1.262       .  A
C854       C1198   1.462       .  S
C855       C1182   1.481       .  S
C859        O860   1.251       .  A
C859       C1177   1.489       .  S
O861        C876   1.256       .  A
O861       Al869   1.880       .  S
C862        O872   1.261       .  A
C862        O863   1.250       .  A
C862       C1173   1.478       .  S
O863       Al865   1.883       .  S
O864        C866   1.266       .  A
O864       Al865   1.903       .  S
Al865       O873   1.874       .  S
Al865       O875   1.890       .  S
Al865       O874   1.789       .  S
C866        O879   1.260       .  A
C866       C1186   1.461       .  S
O867        C877   1.258       .  A
O867       Al869   1.885       .  S
O868        C881   1.258       .  A
O868       Al878   1.915       .  S
Al869       O882   1.868       .  S
Al869       O879   1.898       .  S
Al869       O874   1.792       .  S
O870        C877   1.269       .  A
O870       Al878   1.934       .  S
O871        C880   1.273       .  A
O871       Al878   1.957       .  S
O872       Al878   1.937       .  S
O873        C880   1.262       .  A
O874       Al878   1.790       .  S
O875        C876   1.252       .  A
C876       C1169   1.454       .  S
C877       C1161   1.480       .  S
C880       C1166   1.490       .  S
C881        O882   1.253       .  A
C881       C1158   1.467       .  S
O883        C898   1.268       .  A
O883       Al891   1.924       .  S
C884        O894   1.277       .  A
C884        O885   1.258       .  A
C884       C1165   1.480       .  S
O885       Al887   1.866       .  S
O886        C888   1.262       .  A
O886       Al887   1.911       .  S
Al887       O895   1.920       .  S
Al887       O897   1.883       .  S
Al887       O896   1.779       .  S
C888        O901   1.258       .  A
C888       C1146   1.459       .  S
O889        C899   1.269       .  A
O889       Al891   1.945       .  S
O890        C903   1.274       .  A
O890       Al900   1.973       .  S
Al891       O904   1.874       .  S
Al891       O901   1.897       .  S
Al891       O896   1.781       .  S
O892        C899   1.257       .  A
O892       Al900   1.889       .  S
O893        C902   1.259       .  A
O893       Al900   1.910       .  S
O894       Al900   1.982       .  S
O895        C902   1.260       .  A
O896       Al900   1.777       .  S
O897        C898   1.259       .  A
C898       C1153   1.462       .  S
C899       C1141   1.484       .  S
C903        O904   1.253       .  A
C903       C1178   1.489       .  S
O905        C920   1.255       .  A
O905       Al913   1.879       .  S
C906        O916   1.265       .  A
C906        O907   1.254       .  A
C906       C1137   1.474       .  S
O907       Al909   1.891       .  S
O908        C910   1.260       .  A
O908       Al909   1.891       .  S
Al909       O917   1.868       .  S
Al909       O919   1.903       .  S
Al909       O918   1.775       .  S
C910        O923   1.263       .  A
C910       C1134   1.460       .  S
O911        C921   1.259       .  A
O911       Al913   1.884       .  S
O912        C925   1.262       .  A
O912       Al922   1.914       .  S
Al913       O926   1.886       .  S
Al913       O923   1.924       .  S
Al913       O918   1.782       .  S
O914        C921   1.272       .  A
O914       Al922   1.948       .  S
O915        C924   1.273       .  A
O915       Al922   1.969       .  S
O916       Al922   1.934       .  S
O917        C924   1.260       .  A
O918       Al922   1.780       .  S
O919        C920   1.260       .  A
C920       C1129   1.453       .  S
C921       C1162   1.481       .  S
C924       C1125   1.488       .  S
C925        O926   1.258       .  A
C925       C1202   1.466       .  S
O927       C1350   1.267       .  A
O927       Al935   1.906       .  S
C928        O938   1.275       .  A
C928        O929   1.260       .  A
C928       C1150   1.471       .  S
O929       Al931   1.867       .  S
O930        C932   1.263       .  A
O930       Al931   1.924       .  S
Al931       O939   1.934       .  S
Al931       O941   1.883       .  S
Al931       O940   1.786       .  S
C932        O945   1.258       .  A
C932       C1121   1.469       .  S
O933        C943   1.265       .  A
O933       Al935   1.928       .  S
O934        C947   1.271       .  A
O934       Al944   1.962       .  S
Al935       O948   1.854       .  S
Al935       O945   1.898       .  S
Al935       O940   1.778       .  S
O936        C943   1.257       .  A
O936       Al944   1.891       .  S
O937        C946   1.257       .  A
O937       Al944   1.903       .  S
O938       Al944   1.965       .  S
O939        C946   1.263       .  A
O940       Al944   1.778       .  S
O941       C1350   1.260       .  A
C942       O1335   1.265   1_554  A
C942       O1349   1.261   1_554  A
C942       C1130   1.457       .  S
C943       C1113   1.479       .  S
C946       C1118   1.489       .  S
C947        O948   1.251       .  A
C947       C1109   1.478       .  S
O949        C964   1.260       .  A
O949       Al957   1.898       .  S
C950        O960   1.267       .  A
C950        O951   1.262       .  A
C950       C1105   1.479       .  S
O951       Al953   1.908       .  S
O952        C954   1.261       .  A
O952       Al953   1.898       .  S
Al953       O961   1.890       .  S
Al953       O963   1.916       .  S
Al953       O962   1.776       .  S
C954        O967   1.256       .  A
C954       C1213   1.461   1_455  S
O955        C965   1.267       .  A
O955       Al957   1.916       .  S
O956        C969   1.265       .  A
O956       Al966   1.925       .  S
Al957       O970   1.878       .  S
Al957       O967   1.898       .  S
Al957       O962   1.785       .  S
O958        C965   1.263       .  A
O958       Al966   1.919       .  S
O959        C968   1.261       .  A
O959       Al966   1.929       .  S
O960       Al966   1.929       .  S
O961        C968   1.260       .  A
O962       Al966   1.784       .  S
O963        C964   1.263       .  A
C964       C1102   1.472       .  S
C965       C1142   1.484       .  S
C968       C1138   1.482       .  S
C969        O970   1.258       .  A
C969       C1097   1.463       .  S
O971        C986   1.261       .  A
O971       Al979   1.903       .  S
C972        O982   1.269       .  A
C972        O973   1.261       .  A
C972       C1218   1.465       .  S
O973       Al975   1.874       .  S
O974        C976   1.262       .  A
O974       Al975   1.912       .  S
Al975       O983   1.922       .  S
Al975       O985   1.887       .  S
Al975       O984   1.786       .  S
C976        O989   1.259       .  A
C976       C1093   1.468   1_565  S
O977        C987   1.264       .  A
O977       Al979   1.923       .  S
O978        C991   1.265       .  A
O978       Al988   1.934       .  S
Al979       O992   1.858       .  S
Al979       O989   1.904       .  S
Al979       O984   1.785       .  S
O980        C987   1.255       .  A
O980       Al988   1.893       .  S
O981        C990   1.254       .  A
O981       Al988   1.901       .  S
O982       Al988   1.936       .  S
O983        C990   1.261       .  A
O984       Al988   1.790       .  S
O985        C986   1.263       .  A
C986       C1197   1.454       .  S
C987       C1089   1.483       .  S
C990       C1174   1.488       .  S
C991        O992   1.252       .  A
C991       C1098   1.468       .  S
O993       C1008   1.267       .  A
O993      Al1001   1.929       .  S
C994       O1004   1.275       .  A
C994        O995   1.259       .  A
C994       C1117   1.478       .  S
O995      Al1405   1.876       .  S
O996        C998   1.262       .  A
O996       Al997   1.903       .  S
Al997      O1403   1.870       .  S
Al997      O1005   1.909       .  S
Al997      O1007   1.897       .  S
Al997      O1006   1.780       .  S
C998       O1011   1.259       .  A
C998       C1133   1.462       .  S
O999       C1417   1.266   1_554  A
O999      Al1001   1.939       .  S
O1000      C1421   1.270       .  A
O1000     Al1010   1.958       .  S
Al1001     O1014   1.860       .  S
Al1001     O1011   1.902       .  S
Al1001     O1006   1.781       .  S
O1002      C1009   1.257       .  A
O1002     Al1010   1.883       .  S
O1003      C1420   1.256       .  A
O1003     Al1010   1.899       .  S
O1004     Al1010   1.969       .  S
O1005      C1012   1.259       .  A
O1006     Al1418   1.783   1_554  S
O1007      C1008   1.262       .  A
C1008      C1101   1.472       .  S
C1009      O1407   1.268       .  A
C1009      C1181   1.479       .  S
Al1010     O1414   1.780       .  S
C1012      O1411   1.254       .  A
C1012      C1210   1.472       .  S
C1013      O1408   1.269       .  A
C1013      O1014   1.253       .  A
C1013      C1085   1.473       .  S
O1015      C1030   1.259       .  A
O1015     Al1023   1.885       .  S
C1016      O1026   1.265       .  A
C1016      O1017   1.262       .  A
C1016      C1126   1.479       .  S
O1017     Al1019   1.908       .  S
O1018      C1020   1.256       .  A
O1018     Al1019   1.890       .  S
Al1019     O1027   1.882       .  S
Al1019     O1029   1.917       .  S
Al1019     O1028   1.772       .  S
C1020      O1033   1.260       .  A
C1020      C1122   1.463   1_565  S
O1021      C1031   1.269       .  A
O1021     Al1023   1.917       .  S
O1022      C1035   1.265       .  A
O1022     Al1032   1.925       .  S
Al1023     O1036   1.891       .  S
Al1023     O1033   1.922       .  S
Al1023     O1028   1.789       .  S
O1024      C1031   1.265       .  A
O1024     Al1032   1.916       .  S
O1025      C1034   1.264       .  A
O1025     Al1032   1.942       .  S
O1026     Al1032   1.931       .  S
O1027      C1034   1.259       .  A
O1028     Al1032   1.779       .  S
O1029      C1030   1.266       .  A
C1030      C1562   1.461   1_554  S
C1031      C1090   1.478       .  S
C1034      C1081   1.487   1_455  S
C1035      O1036   1.259       .  A
C1035      C1086   1.467       .  S
O1037      C1052   1.259       .  A
O1037     Al1045   1.871       .  S
C1038      O1048   1.259       .  A
C1038      O1039   1.267       .  A
C1038      C1194   1.482       .  S
O1039     Al1041   1.922       .  S
O1040      C1042   1.256       .  A
O1040     Al1041   1.901       .  S
Al1041     O1049   1.881       .  S
Al1041     O1051   1.941       .  S
Al1041     O1050   1.780       .  S
C1042      O1055   1.257       .  A
C1042      C1094   1.471       .  S
O1043      C1053   1.269       .  A
O1043     Al1045   1.905       .  S
O1044      C1057   1.261       .  A
O1044     Al1054   1.918       .  S
Al1045     O1058   1.893       .  S
Al1045     O1055   1.917       .  S
Al1045     O1050   1.783       .  S
O1046      C1053   1.269       .  A
O1046     Al1054   1.932       .  S
O1047      C1056   1.264       .  A
O1047     Al1054   1.939       .  S
O1048     Al1054   1.899       .  S
O1049      C1056   1.257       .  A
O1050     Al1054   1.784       .  S
O1051      C1052   1.271       .  A
C1052      C1222   1.461       .  S
C1053      C1114   1.478       .  S
C1056      C1106   1.490       .  S
C1057      O1058   1.258       .  A
C1057      C1157   1.466       .  S
O1059      C1074   1.254       .  A
O1059     Al1067   1.869       .  S
C1060      O1070   1.266       .  A
C1060      O1061   1.262       .  A
C1060      C1082   1.473       .  S
O1061     Al1471   1.909   1_554  S
O1062      C1064   1.258       .  A
O1062     Al1063   1.888       .  S
Al1063     O1469   1.908       .  S
Al1063     O1071   1.884       .  S
Al1063     O1073   1.910       .  S
Al1063     O1072   1.775       .  S
C1064      O1077   1.261       .  A
C1064      C1145   1.464       .  S
O1065      C1483   1.264       .  A
O1065     Al1067   1.905       .  S
O1066      C1487   1.265   1_554  A
O1066     Al1076   1.917       .  S
Al1067     O1080   1.902       .  S
Al1067     O1077   1.922       .  S
Al1067     O1072   1.787       .  S
O1068      C1075   1.264       .  A
O1068     Al1076   1.927       .  S
O1069      C1486   1.264   1_554  A
O1069     Al1076   1.939       .  S
O1070     Al1076   1.923       .  S
O1071      C1078   1.258       .  A
O1072     Al1484   1.777       .  S
O1073      C1074   1.264       .  A
C1074      C1170   1.457       .  S
C1075      O1473   1.265       .  A
C1075      C1205   1.484       .  S
Al1076     O1480   1.780   1_554  S
C1078      O1477   1.267       .  A
C1078      C1190   1.481       .  S
C1079      O1474   1.267       .  A
C1079      O1080   1.263       .  A
C1079      C1110   1.471       .  S
C1081      H1083   1.087       .  S
C1081      C2714   1.345       .  D
C1082      H1084   1.088       .  S
C1082      C2713   1.345       .  D
C1085      H1087   1.087       .  S
C1085      C1086   1.352       .  D
C1086      H1088   1.086       .  S
C1089      H1091   1.087       .  S
C1089      C1090   1.342       .  D
C1090      H1092   1.087       .  S
C1093      H1095   1.087       .  S
C1094      H1096   1.087       .  S
C1097      H1099   1.087       .  S
C1097      C1098   1.351       .  D
C1098      H1100   1.087       .  S
C1101      H1103   1.087       .  S
C1101      C1102   1.345       .  D
C1102      H1104   1.087       .  S
C1105      H1107   1.088   1_455  S
C1105      C2738   1.347       .  D
C1106      H1108   1.087       .  S
C1106      C2737   1.348       .  D
C1109      H1111   1.086       .  S
C1109      C1110   1.355       .  D
C1110      H1112   1.086       .  S
C1113      H1115   1.087       .  S
C1113      C1114   1.343       .  D
C1114      H1116   1.087       .  S
C1117      H1119   1.086       .  S
C1117      C1118   1.346       .  D
C1118      H1120   1.087       .  S
C1121      H1123   1.086       .  S
C1122      H1124   1.087       .  S
C1125      H1127   1.086       .  S
C1126      H1128   1.088   1_565  S
C1129      H1131   1.088       .  S
C1129      C1130   1.340       .  D
C1130      H1132   1.087       .  S
C1133      H1135   1.086       .  S
C1133      C1134   1.347       .  D
C1134      H1136   1.088       .  S
C1137      H1139   1.088       .  S
C1137      C1138   1.340       .  D
C1138      H1140   1.086       .  S
C1141      H1143   1.086       .  S
C1141      C1142   1.343       .  D
C1142      H1144   1.086       .  S
C1145      H1147   1.087       .  S
C1145      C2778   1.350       .  D
C1146      H1148   1.087   1_455  S
C1146      C2777   1.347       .  D
C1149      C1150   1.346       .  D
C1150      H1152   1.086       .  S
C1153      H1155   1.088       .  S
C1153      C1154   1.338       .  D
C1154      C1438   1.460       .  S
C1154      H1156   1.088       .  S
C1157      H1159   1.087       .  S
C1157      C1158   1.348       .  D
C1158      H1160   1.087       .  S
C1161      H1163   1.086       .  S
C1161      C1162   1.340       .  D
C1162      H1164   1.087       .  S
C1165      H1167   1.087   1_455  S
C1165      C2798   1.348   1_455  D
C1166      H1168   1.086       .  S
C1166      C2797   1.348       .  D
C1169      H1171   1.087       .  S
C1169      C1170   1.334       .  D
C1170      H1172   1.087       .  S
C1173      H1175   1.086       .  S
C1173      C1174   1.343       .  D
C1174      H1176   1.086       .  S
C1177      H1179   1.087       .  S
C1177      C1178   1.361       .  D
C1178      H1180   1.086       .  S
C1181      H1183   1.087       .  S
C1181      C1182   1.343       .  D
C1182      H1184   1.086       .  S
C1185      H1187   1.086       .  S
C1185      C1186   1.349       .  D
C1186      H1188   1.088       .  S
C1189      H1191   1.087       .  S
C1189      C1190   1.347       .  D
C1190      H1192   1.086       .  S
C1193      C1194   1.340       .  D
C1194      H1196   1.086       .  S
C1197      H1199   1.088       .  S
C1197      C1198   1.336       .  D
C1198      H1200   1.087       .  S
C1201      H1203   1.088       .  S
C1201      C1202   1.348       .  D
C1202      H1204   1.086       .  S
C1205      H1207   1.087       .  S
C1205      C1206   1.344       .  D
C1206      H1208   1.087       .  S
C1209      H1211   1.087       .  S
C1209      C2842   1.342       .  D
C1210      H1212   1.088   1_455  S
C1210      C2841   1.340   1_455  D
C1213      H1215   1.086       .  S
C1213      C2846   1.350   1_655  D
C1214      H1216   1.087       .  S
C1214      C2845   1.348       .  D
C1217      H1219   1.086       .  S
C1218      H1220   1.087   1_565  S
C1221      H1223   1.088       .  S
C1221      C1222   1.339       .  D
C1222      H1224   1.088       .  S
O1225      C1240   1.268       .  A
O1225     Al1233   1.920       .  S
C1226      O1236   1.270       .  A
C1226      O1227   1.260       .  A
C1226      C1617   1.461       .  S
O1227     Al1229   1.868       .  S
O1228      C1230   1.262       .  A
O1228     Al1229   1.905       .  S
Al1229     O1237   1.905       .  S
Al1229     O1239   1.899       .  S
Al1229     O1238   1.779       .  S
C1230      O1243   1.257       .  A
C1230      C1622   1.458       .  S
O1231      C1241   1.268       .  A
O1231     Al1233   1.936       .  S
O1232      C1245   1.267       .  A
O1232     Al1242   1.945       .  S
Al1233     O1246   1.865       .  S
Al1233     O1243   1.894       .  S
Al1233     O1238   1.773       .  S
O1234      C1241   1.260       .  A
O1234     Al1242   1.895       .  S
O1235      C1244   1.260       .  A
O1235     Al1242   1.907       .  S
O1236     Al1242   1.946       .  S
O1237      C1244   1.260       .  A
O1238     Al1242   1.780       .  S
O1239      C1240   1.261       .  A
C1240      C1629   1.472       .  S
C1241      C1614   1.481       .  S
C1244      C1625   1.473       .  S
C1245      O1246   1.252       .  A
C1245      C1609   1.470       .  S
O1247      C1262   1.271       .  A
O1247     Al1255   1.916       .  S
C1248      O1258   1.279       .  A
C1248      O1249   1.260       .  A
C1248      C1597   1.472       .  S
O1249     Al1251   1.863       .  S
O1250      C1252   1.255       .  A
O1250     Al1251   1.888       .  S
Al1251     O1259   1.906       .  S
Al1251     O1261   1.881       .  S
Al1251     O1260   1.785       .  S
C1252      O1265   1.254       .  A
C1252      C1593   1.458       .  S
O1253      C1263   1.268       .  A
O1253     Al1255   1.926       .  S
O1254      C1267   1.271       .  A
O1254     Al1264   1.966       .  S
Al1255     O1268   1.872       .  S
Al1255     O1265   1.899       .  S
Al1255     O1260   1.773       .  S
O1256      C1263   1.261       .  A
O1256     Al1264   1.897       .  S
O1257      C1266   1.264       .  A
O1257     Al1264   1.928       .  S
O1258     Al1264   1.982       .  S
O1259      C1266   1.255       .  A
O1260     Al1264   1.779       .  S
O1261      C1262   1.262       .  A
C1262      C1606   1.458       .  S
C1263      C1590   1.483       .  S
C1267      O1268   1.251       .  A
C1267      C1585   1.490       .  S
O1269      C1284   1.258       .  A
O1269     Al1277   1.887       .  S
C1270      O1280   1.260       .  A
C1270      O1271   1.252       .  A
C1270      C1581   1.473       .  S
O1271     Al1273   1.888       .  S
O1272      C1274   1.264       .  A
O1272     Al1273   1.901       .  S
Al1273     O1281   1.868       .  S
Al1273     O1283   1.896       .  S
Al1273     O1282   1.787       .  S
C1274      O1287   1.260       .  A
C1274      C1594   1.460       .  S
O1275      C1285   1.259       .  A
O1275     Al1277   1.887       .  S
O1276      C1289   1.257       .  A
O1276     Al1286   1.908       .  S
Al1277     O1290   1.875       .  S
Al1277     O1287   1.900       .  S
Al1277     O1282   1.789       .  S
O1278      C1285   1.271       .  A
O1278     Al1286   1.945       .  S
O1279      C1288   1.273       .  A
O1279     Al1286   1.964       .  S
O1280     Al1286   1.927       .  S
O1281      C1288   1.260       .  A
O1282     Al1286   1.789       .  S
O1283      C1284   1.255       .  A
C1284      C1577   1.458       .  S
C1285      C1569   1.484       .  S
C1288      C1574   1.493       .  S
C1289      O1290   1.255       .  A
C1289      C1566   1.464       .  S
O1291      C1306   1.267       .  A
O1291     Al1299   1.918       .  S
C1292      O1302   1.277       .  A
C1292      O1293   1.260       .  A
C1292      C1573   1.480       .  S
O1293     Al1295   1.872       .  S
O1294      C1296   1.261       .  A
O1294     Al1295   1.911       .  S
Al1295     O1303   1.922       .  S
Al1295     O1305   1.886       .  S
Al1295     O1304   1.779       .  S
C1296      O1309   1.260       .  A
C1296      C1554   1.471       .  S
O1297      C1307   1.267       .  A
O1297     Al1299   1.934       .  S
O1298      C1311   1.272       .  A
O1298     Al1308   1.968       .  S
Al1299     O1312   1.880       .  S
Al1299     O1309   1.911       .  S
Al1299     O1304   1.783       .  S
O1300      C1307   1.257       .  A
O1300     Al1308   1.887       .  S
O1301      C1310   1.259       .  A
O1301     Al1308   1.911       .  S
O1302     Al1308   1.979       .  S
O1303      C1310   1.260       .  A
O1304     Al1308   1.780       .  S
O1305      C1306   1.261       .  A
C1306      C1561   1.462       .  S
C1307      C1549   1.480       .  S
C1311      O1312   1.254       .  A
C1311      C1586   1.489       .  S
O1313      C1328   1.253       .  A
O1313     Al1321   1.876       .  S
C1314      O1324   1.264       .  A
C1314      O1315   1.254       .  A
C1314      C1545   1.474       .  S
O1315     Al1317   1.888       .  S
O1316      C1318   1.261       .  A
O1316     Al1317   1.890       .  S
Al1317     O1325   1.867       .  S
Al1317     O1327   1.906       .  S
Al1317     O1326   1.777       .  S
C1318      O1331   1.263       .  A
C1318      C1542   1.459       .  S
O1319      C1329   1.260       .  A
O1319     Al1321   1.886       .  S
O1320      C1333   1.261       .  A
O1320     Al1330   1.914       .  S
Al1321     O1334   1.880       .  S
Al1321     O1331   1.922       .  S
Al1321     O1326   1.783       .  S
O1322      C1329   1.273       .  A
O1322     Al1330   1.952       .  S
O1323      C1332   1.274       .  A
O1323     Al1330   1.968       .  S
O1324     Al1330   1.937       .  S
O1325      C1332   1.260       .  A
O1326     Al1330   1.779       .  S
O1327      C1328   1.260       .  A
C1328      C1537   1.451       .  S
C1329      C1570   1.485       .  S
C1332      C1533   1.488       .  S
C1333      O1334   1.257       .  A
C1333      C1610   1.466       .  S
O1335     Al1343   1.904       .  S
C1336      O1346   1.274       .  A
C1336      O1337   1.259       .  A
C1336      C1558   1.471       .  S
O1337     Al1339   1.868       .  S
O1338      C1340   1.264       .  A
O1338     Al1339   1.923       .  S
Al1339     O1347   1.926       .  S
Al1339     O1349   1.887       .  S
Al1339     O1348   1.782       .  S
C1340      O1353   1.259       .  A
C1340      C1529   1.466       .  S
O1341      C1351   1.264       .  A
O1341     Al1343   1.928       .  S
O1342      C1355   1.271       .  A
O1342     Al1352   1.963       .  S
Al1343     O1356   1.853       .  S
Al1343     O1353   1.897       .  S
Al1343     O1348   1.778       .  S
O1344      C1351   1.255       .  A
O1344     Al1352   1.884       .  S
O1345      C1354   1.256       .  A
O1345     Al1352   1.898       .  S
O1346     Al1352   1.961       .  S
O1347      C1354   1.262       .  A
O1348     Al1352   1.778       .  S
C1350      C1538   1.457       .  S
C1351      C1521   1.474       .  S
C1354      C1526   1.482       .  S
C1355      O1356   1.251       .  A
C1355      C1517   1.476       .  S
O1357      C1372   1.259       .  A
O1357     Al1365   1.894       .  S
C1358      O1368   1.266       .  A
C1358      O1359   1.262       .  A
C1358      C1513   1.482       .  S
O1359     Al1361   1.912       .  S
O1360      C1362   1.258       .  A
O1360     Al1361   1.890       .  S
Al1361     O1369   1.882       .  S
Al1361     O1371   1.924       .  S
Al1361     O1370   1.774       .  S
C1362      O1375   1.257       .  A
C1362      C1621   1.453   1_455  S
O1363      C1373   1.266       .  A
O1363     Al1365   1.908       .  S
O1364      C1377   1.266       .  A
O1364     Al1374   1.926       .  S
Al1365     O1378   1.878       .  S
Al1365     O1375   1.897       .  S
Al1365     O1370   1.783       .  S
O1366      C1373   1.263       .  A
O1366     Al1374   1.918       .  S
O1367      C1376   1.263       .  A
O1367     Al1374   1.936       .  S
O1368     Al1374   1.933       .  S
O1369      C1376   1.260       .  A
O1370     Al1374   1.782       .  S
O1371      C1372   1.265       .  A
C1372      C1510   1.472       .  S
C1373      C1550   1.478       .  S
C1376      C1546   1.483       .  S
C1377      O1378   1.258       .  A
C1377      C1505   1.464       .  S
O1379      C1394   1.259       .  A
O1379     Al1387   1.896       .  S
C1380      O1390   1.268       .  A
C1380      O1381   1.260       .  A
C1380      C1626   1.461       .  S
O1381     Al1383   1.869       .  S
O1382      C1384   1.263       .  A
O1382     Al1383   1.913       .  S
Al1383     O1391   1.921       .  S
Al1383     O1393   1.884       .  S
Al1383     O1392   1.782       .  S
C1384      O1397   1.261       .  A
C1384      C1501   1.471   1_565  S
O1385      C1395   1.264       .  A
O1385     Al1387   1.919       .  S
O1386      C1399   1.265       .  A
O1386     Al1396   1.935       .  S
Al1387     O1400   1.863       .  S
Al1387     O1397   1.909       .  S
Al1387     O1392   1.782       .  S
O1388      C1395   1.256       .  A
O1388     Al1396   1.893       .  S
O1389      C1398   1.255       .  A
O1389     Al1396   1.899       .  S
O1390     Al1396   1.933       .  S
O1391      C1398   1.262       .  A
O1392     Al1396   1.788       .  S
O1393      C1394   1.262       .  A
C1394      C1605   1.448       .  S
C1395      C1497   1.480       .  S
C1398      C1582   1.483       .  S
C1399      O1400   1.253       .  A
C1399      C1506   1.467       .  S
O1401      C1416   1.268       .  A
O1401     Al1409   1.931       .  S
C1402      O1412   1.273       .  A
C1402      O1403   1.260   1_556  A
C1402      C1525   1.470       .  S
O1404      C1406   1.262       .  A
O1404     Al1405   1.903       .  S
Al1405     O1413   1.916       .  S
Al1405     O1415   1.895       .  S
Al1405     O1414   1.778       .  S
C1406      O1419   1.258       .  A
C1406      C1541   1.459       .  S
O1407     Al1409   1.941       .  S
O1408     Al1418   1.950   1_554  S
Al1409     O1422   1.865       .  S
Al1409     O1419   1.899       .  S
Al1409     O1414   1.780       .  S
O1410      C1417   1.257       .  A
O1410     Al1418   1.885       .  S
O1411     Al1418   1.894   1_554  S
O1412     Al1418   1.960       .  S
O1413      C1420   1.261       .  A
O1415      C1416   1.261       .  A
C1416      C1509   1.473       .  S
C1417      C1589   1.481       .  S
C1420      C1618   1.478       .  S
C1421      O1422   1.253       .  A
C1421      C1493   1.476       .  S
O1423      C1438   1.258       .  A
O1423     Al1431   1.880       .  S
C1424      O1434   1.265       .  A
C1424      O1425   1.261       .  A
C1424      C1534   1.477       .  S
O1425     Al1427   1.903       .  S
O1426      C1428   1.255       .  A
O1426     Al1427   1.890       .  S
Al1427     O1435   1.876       .  S
Al1427     O1437   1.922       .  S
Al1427     O1436   1.773       .  S
C1428      O1441   1.259       .  A
C1428      C1530   1.464   1_565  S
O1429      C1439   1.268       .  A
O1429     Al1431   1.910       .  S
O1430      C1443   1.265       .  A
O1430     Al1440   1.928       .  S
Al1431     O1444   1.891       .  S
Al1431     O1441   1.923       .  S
Al1431     O1436   1.790       .  S
O1432      C1439   1.266       .  A
O1432     Al1440   1.919       .  S
O1433      C1442   1.265       .  A
O1433     Al1440   1.943       .  S
O1434     Al1440   1.930       .  S
O1435      C1442   1.257       .  A
O1436     Al1440   1.779       .  S
O1437      C1438   1.267       .  A
C1439      C1498   1.475       .  S
C1442      C1489   1.485       .  S
C1443      O1444   1.259       .  A
C1443      C1494   1.470       .  S
O1445      C1460   1.259       .  A
O1445     Al1453   1.870       .  S
C1446      O1456   1.258       .  A
C1446      O1447   1.267       .  A
C1446      C1602   1.482       .  S
O1447     Al1449   1.928       .  S
O1448      C1450   1.255       .  A
O1448     Al1449   1.892       .  S
Al1449     O1457   1.883       .  S
Al1449     O1459   1.945       .  S
Al1449     O1458   1.776       .  S
C1450      O1463   1.257       .  A
C1450      C1502   1.469       .  S
O1451      C1461   1.268       .  A
O1451     Al1453   1.905       .  S
O1452      C1465   1.261       .  A
O1452     Al1462   1.913       .  S
Al1453     O1466   1.897       .  S
Al1453     O1463   1.923       .  S
Al1453     O1458   1.783       .  S
O1454      C1461   1.267       .  A
O1454     Al1462   1.926       .  S
O1455      C1464   1.264       .  A
O1455     Al1462   1.938       .  S
O1456     Al1462   1.897       .  S
O1457      C1464   1.257       .  A
O1458     Al1462   1.783       .  S
O1459      C1460   1.271       .  A
C1460      C1630   1.463       .  S
C1461      C1522   1.475       .  S
C1464      C1514   1.490       .  S
C1465      O1466   1.260       .  A
C1465      C1565   1.464       .  S
O1467      C1482   1.255       .  A
O1467     Al1475   1.875       .  S
C1468      O1478   1.268       .  A
C1468      O1469   1.261       .  A
C1468      C1490   1.479       .  S
O1470      C1472   1.258       .  A
O1470     Al1471   1.889       .  S
Al1471     O1479   1.890       .  S
Al1471     O1481   1.914       .  S
Al1471     O1480   1.775       .  S
C1472      O1485   1.261       .  A
C1472      C1553   1.464       .  S
O1473     Al1475   1.909   1_554  S
O1474     Al1484   1.923       .  S
Al1475     O1488   1.901       .  S
Al1475     O1485   1.921       .  S
Al1475     O1480   1.787       .  S
O1476      C1483   1.265       .  A
O1476     Al1484   1.927       .  S
O1477     Al1484   1.950       .  S
O1478     Al1484   1.936       .  S
O1479      C1486   1.259       .  A
O1481      C1482   1.265       .  A
C1482      C1578   1.462       .  S
C1483      C1613   1.480       .  S
C1486      C1598   1.477       .  S
C1487      O1488   1.263       .  A
C1487      C1518   1.468       .  S
C1489      H1491   1.086   1_455  S
C1489      C3122   1.346   1_455  D
C1490      H1492   1.088       .  S
C1490      C3121   1.345       .  D
C1493      H1495   1.087       .  S
C1493      C1494   1.353       .  D
C1494      H1496   1.086       .  S
C1497      H1499   1.087       .  S
C1497      C1498   1.342       .  D
C1498      H1500   1.087       .  S
C1501      H1503   1.086       .  S
C1502      H1504   1.089       .  S
C1505      H1507   1.087       .  S
C1505      C1506   1.351       .  D
C1506      H1508   1.087       .  S
C1509      H1511   1.087       .  S
C1509      C1510   1.344       .  D
C1510      H1512   1.087       .  S
C1513      H1515   1.087   1_455  S
C1513      C3146   1.349       .  D
C1514      H1516   1.087       .  S
C1514      C3145   1.348       .  D
C1517      H1519   1.087       .  S
C1517      C1518   1.353       .  D
C1518      H1520   1.086       .  S
C1521      H1523   1.087       .  S
C1521      C1522   1.340       .  D
C1522      H1524   1.086       .  S
C1525      H1527   1.086       .  S
C1525      C1526   1.343       .  D
C1526      H1528   1.087       .  S
C1529      H1531   1.086       .  S
C1530      H1532   1.087       .  S
C1533      H1535   1.086       .  S
C1534      H1536   1.088   1_565  S
C1537      H1539   1.087       .  S
C1537      C1538   1.338       .  D
C1538      H1540   1.088       .  S
C1541      H1543   1.086       .  S
C1541      C1542   1.345       .  D
C1542      H1544   1.089       .  S
C1545      H1547   1.089       .  S
C1545      C1546   1.341       .  D
C1546      H1548   1.087       .  S
C1549      H1551   1.086       .  S
C1549      C1550   1.342       .  D
C1550      H1552   1.086       .  S
C1553      H1555   1.088       .  S
C1553      C3186   1.349       .  D
C1554      H1556   1.086   1_455  S
C1554      C3185   1.349       .  D
C1557      C1558   1.346       .  D
C1558      H1560   1.086       .  S
C1561      H1563   1.088       .  S
C1561      C1562   1.340       .  D
C1562      H1564   1.087       .  S
C1565      H1567   1.087       .  S
C1565      C1566   1.345       .  D
C1566      H1568   1.087       .  S
C1569      H1571   1.087       .  S
C1569      C1570   1.341       .  D
C1570      H1572   1.086       .  S
C1573      H1575   1.087       .  S
C1573      C3206   1.349   1_455  D
C1574      H1576   1.086       .  S
C1574      C3205   1.350       .  D
C1577      H1579   1.087       .  S
C1577      C1578   1.335       .  D
C1578      H1580   1.087       .  S
C1581      H1583   1.086       .  S
C1581      C1582   1.342       .  D
C1582      H1584   1.086       .  S
C1585      H1587   1.087       .  S
C1585      C1586   1.361       .  D
C1586      H1588   1.086       .  S
C1589      H1591   1.086       .  S
C1589      C1590   1.344       .  D
C1590      H1592   1.086       .  S
C1593      H1595   1.086       .  S
C1593      C1594   1.349       .  D
C1594      H1596   1.088       .  S
C1597      H1599   1.086       .  S
C1597      C1598   1.344       .  D
C1598      H1600   1.087       .  S
C1601      C1602   1.339       .  D
C1602      H1604   1.086       .  S
C1605      H1607   1.087       .  S
C1605      C1606   1.334       .  D
C1606      H1608   1.087       .  S
C1609      H1611   1.087       .  S
C1609      C1610   1.350       .  D
C1610      H1612   1.087       .  S
C1613      H1615   1.087       .  S
C1613      C1614   1.345       .  D
C1614      H1616   1.087       .  S
C1617      H1619   1.087       .  S
C1617      C3250   1.341       .  D
C1618      H1620   1.087   1_455  S
C1618      C3249   1.342   1_455  D
C1621      H1623   1.087       .  S
C1621      C3254   1.345   1_655  D
C1622      H1624   1.087       .  S
C1622      C3253   1.346       .  D
C1625      H1627   1.088       .  S
C1626      H1628   1.087   1_565  S
C1629      H1631   1.087       .  S
C1629      C1630   1.341       .  D
C1630      H1632   1.088       .  S
O1633      C1648   1.269       .  A
O1633     Al1641   1.921       .  S
C1634      O1644   1.271       .  A
C1634      O1635   1.259       .  A
C1634      C2025   1.463       .  S
O1635     Al1637   1.868       .  S
O1636      C1638   1.262       .  A
O1636     Al1637   1.911       .  S
Al1637     O1645   1.913       .  S
Al1637     O1647   1.893       .  S
Al1637     O1646   1.779       .  S
C1638      O1651   1.257       .  A
C1638      C2030   1.460   1_655  S
O1639      C1649   1.268       .  A
O1639     Al1641   1.940       .  S
O1640      C1653   1.267       .  A
O1640     Al1650   1.945       .  S
Al1641     O1654   1.867       .  S
Al1641     O1651   1.895       .  S
Al1641     O1646   1.774       .  S
O1642      C1649   1.258       .  A
O1642     Al1650   1.888       .  S
O1643      C1652   1.259       .  A
O1643     Al1650   1.905       .  S
O1644     Al1650   1.948       .  S
O1645      C1652   1.261       .  A
O1646     Al1650   1.779       .  S
O1647      C1648   1.260       .  A
C1648      C2037   1.469       .  S
C1649      C2022   1.479       .  S
C1652      C2033   1.477       .  S
C1653      O1654   1.253       .  A
C1653      C2017   1.471       .  S
O1655      C1670   1.274       .  A
O1655     Al1663   1.933       .  S
C1656      O1666   1.279       .  A
C1656      O1657   1.262       .  A
C1656      C2005   1.471       .  S
O1657     Al1659   1.872       .  S
O1658      C1660   1.254       .  A
O1658     Al1659   1.877       .  S
Al1659     O1667   1.900       .  S
Al1659     O1669   1.888       .  S
Al1659     O1668   1.782       .  S
C1660      O1673   1.252       .  A
C1660      C2001   1.456       .  S
O1661      C1671   1.269       .  A
O1661     Al1663   1.931       .  S
O1662      C1675   1.268       .  A
O1662     Al1672   1.954       .  S
Al1663     O1676   1.862       .  S
Al1663     O1673   1.898       .  S
Al1663     O1668   1.775       .  S
O1664      C1671   1.260       .  A
O1664     Al1672   1.893       .  S
O1665      C1674   1.263       .  A
O1665     Al1672   1.929       .  S
O1666     Al1672   1.977       .  S
O1667      C1674   1.253       .  A
O1668     Al1672   1.780       .  S
O1669      C1670   1.264       .  A
C1670      C2014   1.468       .  S
C1671      C1998   1.483       .  S
C1674      C2825   1.474       .  S
C1675      O1676   1.250       .  A
C1675      C1993   1.482       .  S
O1677      C1692   1.254       .  A
O1677     Al1685   1.880       .  S
C1678      O1688   1.261       .  A
C1678      O1679   1.249       .  A
C1678      C1989   1.481       .  S
O1679     Al1681   1.881       .  S
O1680      C1682   1.266       .  A
O1680     Al1681   1.903       .  S
Al1681     O1689   1.877       .  S
Al1681     O1691   1.891       .  S
Al1681     O1690   1.790       .  S
C1682      O1695   1.259       .  A
C1682      C2002   1.458       .  S
O1683      C1693   1.256       .  A
O1683     Al1685   1.878       .  S
O1684      C1697   1.260       .  A
O1684     Al1694   1.921       .  S
Al1685     O1698   1.859       .  S
Al1685     O1695   1.891       .  S
Al1685     O1690   1.792       .  S
O1686      C1693   1.269       .  A
O1686     Al1694   1.938       .  S
O1687      C1696   1.275       .  A
O1687     Al1694   1.964       .  S
O1688     Al1694   1.944       .  S
O1689      C1696   1.263       .  A
O1690     Al1694   1.792       .  S
O1691      C1692   1.252       .  A
C1692      C1985   1.457       .  S
C1693      C1977   1.480       .  S
C1696      C1982   1.494       .  S
C1697      O1698   1.252       .  A
C1697      C1974   1.468       .  S
O1699      C1714   1.267       .  A
O1699     Al1707   1.920       .  S
C1700      O1710   1.274       .  A
C1700      O1701   1.260       .  A
C1700      C1981   1.474       .  S
O1701     Al1703   1.871       .  S
O1702      C1704   1.263       .  A
O1702     Al1703   1.914       .  S
Al1703     O1711   1.918       .  S
Al1703     O1713   1.894       .  S
Al1703     O1712   1.779       .  S
C1704      O1717   1.259       .  A
C1704      C1962   1.467       .  S
O1705      C1715   1.267       .  A
O1705     Al1707   1.937       .  S
O1706      C1719   1.271       .  A
O1706     Al1716   1.959       .  S
Al1707     O1720   1.872       .  S
Al1707     O1717   1.904       .  S
Al1707     O1712   1.780       .  S
O1708      C1715   1.258       .  A
O1708     Al1716   1.891       .  S
O1709      C1718   1.259       .  A
O1709     Al1716   1.909       .  S
O1710     Al1716   1.967       .  S
O1711      C1718   1.260       .  A
O1712     Al1716   1.781       .  S
O1713      C1714   1.262       .  A
C1714      C1969   1.467       .  S
C1715      C1957   1.482       .  S
C1718      C2781   1.482       .  S
C1719      O1720   1.254       .  A
C1719      C1994   1.481       .  S
O1721      C1736   1.252       .  A
O1721     Al1729   1.869       .  S
C1722      O1732   1.263       .  A
C1722      O1723   1.255       .  A
C1722      C1953   1.471       .  S
O1723     Al1725   1.892       .  S
O1724      C1726   1.260       .  A
O1724     Al1725   1.890       .  S
Al1725     O1733   1.863       .  S
Al1725     O1735   1.914       .  S
Al1725     O1734   1.776       .  S
C1726      O1739   1.263       .  A
C1726      C1950   1.459       .  S
O1727      C1737   1.258       .  A
O1727     Al1729   1.878       .  S
O1728      C1741   1.261       .  A
O1728     Al1738   1.915       .  S
Al1729     O1742   1.884       .  S
Al1729     O1739   1.922       .  S
Al1729     O1734   1.780       .  S
O1730      C1737   1.274       .  A
O1730     Al1738   1.953       .  S
O1731      C1740   1.274       .  A
O1731     Al1738   1.970       .  S
O1732     Al1738   1.928       .  S
O1733      C1740   1.259       .  A
O1734     Al1738   1.778       .  S
O1735      C1736   1.262       .  A
C1736      C1945   1.451       .  S
C1737      C1978   1.480       .  S
C1740      C1941   1.488       .  S
C1741      O1742   1.257       .  A
C1741      C2018   1.467       .  S
O1743      C2166   1.268       .  A
O1743     Al1751   1.911       .  S
C1744      O1754   1.274       .  A
C1744      O1745   1.260       .  A
C1744      C1966   1.468       .  S
O1745     Al1747   1.866       .  S
O1746      C1748   1.263       .  A
O1746     Al1747   1.924       .  S
Al1747     O1755   1.929       .  S
Al1747     O1757   1.881       .  S
Al1747     O1756   1.783       .  S
C1748      O1761   1.257       .  A
C1748      C1937   1.468       .  S
O1749      C1759   1.265       .  A
O1749     Al1751   1.929       .  S
O1750      C1763   1.270       .  A
O1750     Al1760   1.960       .  S
Al1751     O1764   1.849       .  S
Al1751     O1761   1.896       .  S
Al1751     O1756   1.776       .  S
O1752      C1759   1.256       .  A
O1752     Al1760   1.889       .  S
O1753      C1762   1.256       .  A
O1753     Al1760   1.901       .  S
O1754     Al1760   1.959       .  S
O1755      C1762   1.262       .  A
O1756     Al1760   1.780       .  S
O1757      C2166   1.260       .  A
C1758      O2151   1.267   1_554  A
C1758      O2165   1.258   1_554  A
C1758      C1946   1.457       .  S
C1759      C1929   1.479       .  S
C1762      C1934   1.485       .  S
C1763      O1764   1.250       .  A
C1763      C1925   1.476       .  S
O1765      C1780   1.260       .  A
O1765     Al1773   1.899       .  S
C1766      O1776   1.265       .  A
C1766      O1767   1.262       .  A
C1766      C1921   1.476       .  S
O1767     Al1769   1.911       .  S
O1768      C1770   1.258       .  A
O1768     Al1769   1.887       .  S
Al1769     O1777   1.876       .  S
Al1769     O1779   1.921       .  S
Al1769     O1778   1.770       .  S
C1770      O1783   1.261       .  A
C1770      C2029   1.459       .  S
O1771      C1781   1.266       .  A
O1771     Al1773   1.909       .  S
O1772      C1785   1.263       .  A
O1772     Al1782   1.913       .  S
Al1773     O1786   1.893       .  S
Al1773     O1783   1.918       .  S
Al1773     O1778   1.782       .  S
O1774      C1781   1.265       .  A
O1774     Al1782   1.924       .  S
O1775      C1784   1.264       .  A
O1775     Al1782   1.938       .  S
O1776     Al1782   1.922       .  S
O1777      C1784   1.260       .  A
O1778     Al1782   1.781       .  S
O1779      C1780   1.264       .  A
C1780      C1918   1.472       .  S
C1781      C1958   1.481       .  S
C1784      C1954   1.478       .  S
C1785      O1786   1.261       .  A
C1785      C1913   1.459       .  S
O1787      C1802   1.259       .  A
O1787     Al1795   1.871       .  S
C1788      O1798   1.256       .  A
C1788      O1789   1.269       .  A
C1788      C2034   1.475       .  S
O1789     Al1791   1.929       .  S
O1790      C1792   1.256       .  A
O1790     Al1791   1.901       .  S
Al1791     O1799   1.886       .  S
Al1791     O1801   1.938       .  S
Al1791     O1800   1.774       .  S
C1792      O1805   1.259       .  A
C1792      C1909   1.477       .  S
O1793      C1803   1.269       .  A
O1793     Al1795   1.911       .  S
O1794      C1807   1.257       .  A
O1794     Al1804   1.899       .  S
Al1795     O1808   1.909       .  S
Al1795     O1805   1.928       .  S
Al1795     O1800   1.784       .  S
O1796      C1803   1.268       .  A
O1796     Al1804   1.926       .  S
O1797      C1806   1.260       .  A
O1797     Al1804   1.930       .  S
O1798     Al1804   1.882       .  S
O1799      C1806   1.257       .  A
O1800     Al1804   1.786       .  S
O1801      C1802   1.272       .  A
C1802      C2013   1.463       .  S
C1803      C1905   1.478       .  S
C1806      C1990   1.489       .  S
C1807      O1808   1.262       .  A
C1807      C1914   1.460       .  S
O1809      C1824   1.267       .  A
O1809     Al1817   1.929       .  S
C1810      O1820   1.274       .  A
C1810      O1811   1.260       .  A
C1810      C1933   1.473       .  S
O1811     Al2221   1.871       .  S
O1812      C1814   1.261       .  A
O1812     Al1813   1.897       .  S
Al1813     O2219   1.876       .  S
Al1813     O1821   1.911       .  S
Al1813     O1823   1.898       .  S
Al1813     O1822   1.779       .  S
C1814      O1827   1.259       .  A
C1814      C1949   1.461       .  S
O1815      C2233   1.266   1_554  A
O1815     Al1817   1.934       .  S
O1816      C2237   1.270       .  A
O1816     Al1826   1.953       .  S
Al1817     O1830   1.866       .  S
Al1817     O1827   1.905       .  S
Al1817     O1822   1.784       .  S
O1818      C1825   1.256       .  A
O1818     Al1826   1.881       .  S
O1819      C2236   1.254       .  A
O1819     Al1826   1.895       .  S
O1820     Al1826   1.963       .  S
O1821      C1828   1.259       .  A
O1822     Al2234   1.782   1_554  S
O1823      C1824   1.263       .  A
C1824      C1917   1.472       .  S
C1825      O2223   1.268       .  A
C1825      C1997   1.481       .  S
Al1826     O2230   1.782       .  S
C1828      O2227   1.254       .  A
C1828      C2026   1.476       .  S
C1829      O2224   1.270       .  A
C1829      O1830   1.254       .  A
C1829      C1901   1.476       .  S
O1831      C1846   1.258       .  A
O1831     Al1839   1.882       .  S
C1832      O1842   1.265       .  A
C1832      O1833   1.262       .  A
C1832      C1942   1.481       .  S
O1833     Al1835   1.906       .  S
O1834      C1836   1.256       .  A
O1834     Al1835   1.890       .  S
Al1835     O1843   1.880       .  S
Al1835     O1845   1.918       .  S
Al1835     O1844   1.774       .  S
C1836      O1849   1.259       .  A
C1836      C1938   1.463       .  S
O1837      C1847   1.269       .  A
O1837     Al1839   1.910       .  S
O1838      C1851   1.266       .  A
O1838     Al1848   1.935       .  S
Al1839     O1852   1.886       .  S
Al1839     O1849   1.921       .  S
Al1839     O1844   1.789       .  S
O1840      C1847   1.265       .  A
O1840     Al1848   1.917       .  S
O1841      C1850   1.264       .  A
O1841     Al1848   1.939       .  S
O1842     Al1848   1.932       .  S
O1843      C1850   1.258       .  A
O1844     Al1848   1.779       .  S
O1845      C1846   1.266       .  A
C1846      C2378   1.458   1_554  S
C1847      C1906   1.473       .  S
C1850      C1897   1.484       .  S
C1851      O1852   1.257       .  A
C1851      C1902   1.471       .  S
O1853      C1868   1.259       .  A
O1853     Al1861   1.868       .  S
C1854      O1864   1.259       .  A
C1854      O1855   1.267       .  A
C1854      C2010   1.482       .  S
O1855     Al1857   1.924       .  S
O1856      C1858   1.255       .  A
O1856     Al1857   1.898       .  S
Al1857     O1865   1.884       .  S
Al1857     O1867   1.943       .  S
Al1857     O1866   1.780       .  S
C1858      O1871   1.256       .  A
C1858      C1910   1.469       .  S
O1859      C1869   1.269       .  A
O1859     Al1861   1.909       .  S
O1860      C1873   1.260       .  A
O1860     Al1870   1.917       .  S
Al1861     O1874   1.897       .  S
Al1861     O1871   1.916       .  S
Al1861     O1866   1.785       .  S
O1862      C1869   1.269       .  A
O1862     Al1870   1.928       .  S
O1863      C1872   1.263       .  A
O1863     Al1870   1.936       .  S
O1864     Al1870   1.898       .  S
O1865      C1872   1.257       .  A
O1866     Al1870   1.782       .  S
O1867      C1868   1.272       .  A
C1868      C2038   1.459       .  S
C1869      C1930   1.478       .  S
C1872      C1922   1.491   1_655  S
C1873      O1874   1.259       .  A
C1873      C1973   1.467       .  S
O1875      C1890   1.255       .  A
O1875     Al1883   1.874       .  S
C1876      O1886   1.267       .  A
C1876      O1877   1.262       .  A
C1876      C1898   1.475       .  S
O1877     Al2287   1.907   1_554  S
O1878      C1880   1.257       .  A
O1878     Al1879   1.886       .  S
Al1879     O2285   1.909       .  S
Al1879     O1887   1.880       .  S
Al1879     O1889   1.910       .  S
Al1879     O1888   1.774       .  S
C1880      O1893   1.262       .  A
C1880      C1961   1.465   1_655  S
O1881      C2299   1.265       .  A
O1881     Al1883   1.910       .  S
O1882      C2303   1.265   1_554  A
O1882     Al1892   1.919       .  S
Al1883     O1896   1.903       .  S
Al1883     O1893   1.926       .  S
Al1883     O1888   1.786       .  S
O1884      C1891   1.263       .  A
O1884     Al1892   1.922       .  S
O1885      C2302   1.263   1_554  A
O1885     Al1892   1.937       .  S
O1886     Al1892   1.927       .  S
O1887      C1894   1.258       .  A
O1888     Al2300   1.779       .  S
O1889      C1890   1.264       .  A
C1890      C1986   1.460       .  S
C1891      O2289   1.264       .  A
C1891      C2021   1.479       .  S
Al1892     O2296   1.779   1_554  S
C1894      O2293   1.266       .  A
C1894      C2006   1.480       .  S
C1895      O2290   1.264       .  A
C1895      O1896   1.263       .  A
C1895      C1926   1.467       .  S
C1897      H1899   1.087       .  S
C1898      H1900   1.089       .  S
C1901      H1903   1.087       .  S
C1901      C1902   1.354       .  D
C1902      H1904   1.086       .  S
C1905      H1907   1.088       .  S
C1905      C1906   1.339       .  D
C1906      H1908   1.087       .  S
C1909      H1911   1.088       .  S
C1909      C2726   1.352       .  D
C1910      H1912   1.087   1_545  S
C1910      C2725   1.350       .  D
C1913      H1915   1.087       .  S
C1913      C1914   1.345       .  D
C1914      H1916   1.086       .  S
C1917      H1919   1.087       .  S
C1917      C1918   1.345       .  D
C1918      H1920   1.087       .  S
C1921      H1923   1.088       .  S
C1922      H1924   1.087       .  S
C1925      H1927   1.087       .  S
C1925      C1926   1.353       .  D
C1926      H1928   1.087       .  S
C1929      H1931   1.087       .  S
C1929      C1930   1.341       .  D
C1930      H1932   1.087       .  S
C1933      H1935   1.086       .  S
C1933      C1934   1.344       .  D
C1934      H1936   1.087       .  S
C1937      H1939   1.086   1_545  S
C1937      C3162   1.351       .  D
C1938      H1940   1.087       .  S
C1938      C3161   1.350   1_554  D
C1941      H1943   1.086   1_545  S
C1941      C2758   1.350   1_545  D
C1942      H1944   1.087       .  S
C1942      C2757   1.351       .  D
C1945      H1947   1.088       .  S
C1945      C1946   1.336       .  D
C1946      H1948   1.087       .  S
C1949      H1951   1.086       .  S
C1949      C1950   1.346       .  D
C1950      H1952   1.088       .  S
C1953      H1955   1.089       .  S
C1953      C1954   1.340       .  D
C1954      H1956   1.087       .  S
C1957      H1959   1.087       .  S
C1957      C1958   1.344       .  D
C1958      H1960   1.087       .  S
C1961      H1963   1.088       .  S
C1962      H1964   1.086       .  S
C1965      C2534   1.481   1_545  S
C1965      H2783   1.087       .  S
C1965      C1966   1.345       .  D
C1966      H1968   1.086       .  S
H1967      C2781   1.087       .  S
C1969      H1971   1.088       .  S
C1969      C1970   1.342       .  D
C1970      C2254   1.463       .  S
C1970      H1972   1.088       .  S
C1973      H1975   1.087       .  S
C1973      C1974   1.348       .  D
C1974      H1976   1.087       .  S
C1977      H1979   1.087       .  S
C1977      C1978   1.337       .  D
C1978      H1980   1.087       .  S
C1981      H1983   1.088       .  S
C1982      H1984   1.086   1_655  S
C1985      H1987   1.087       .  S
C1985      C1986   1.336       .  D
C1986      H1988   1.087       .  S
C1989      H1991   1.088       .  S
C1989      C1990   1.344       .  D
C1990      H1992   1.087       .  S
C1993      H1995   1.087       .  S
C1993      C1994   1.357       .  D
C1994      H1996   1.087       .  S
C1997      H1999   1.087       .  S
C1997      C1998   1.343       .  D
C1998      H2000   1.086       .  S
C2001      H2003   1.086       .  S
C2001      C2002   1.348       .  D
C2002      H2004   1.089       .  S
C2005      H2007   1.087       .  S
C2005      C2006   1.344       .  D
C2006      H2008   1.086       .  S
C2009      C2490   1.479   1_545  S
C2009      H2827   1.088       .  S
C2009      C2010   1.339       .  D
C2010      H2012   1.086       .  S
H2011      C2825   1.087       .  S
C2013      H2015   1.088       .  S
C2013      C2014   1.338       .  D
C2014      H2016   1.087       .  S
C2017      H2019   1.087       .  S
C2017      C2018   1.349       .  D
C2018      H2020   1.086       .  S
C2021      H2023   1.087       .  S
C2021      C2022   1.342       .  D
C2022      H2024   1.087       .  S
C2025      H2027   1.087       .  S
C2026      H2028   1.088       .  S
C2029      H2031   1.088       .  S
C2030      H2032   1.086       .  S
C2033      H2035   1.086   1_545  S
C2033      C2850   1.345   1_545  D
C2034      H2036   1.087       .  S
C2034      C2849   1.334       .  D
C2037      H2039   1.087       .  S
C2037      C2038   1.339       .  D
C2038      H2040   1.088       .  S
O2041      C2056   1.268       .  A
O2041     Al2049   1.924       .  S
C2042      O2052   1.270       .  A
C2042      O2043   1.259       .  A
C2042      C2433   1.462       .  S
O2043     Al2045   1.868       .  S
O2044      C2046   1.262       .  A
O2044     Al2045   1.907       .  S
Al2045     O2053   1.912       .  S
Al2045     O2055   1.893       .  S
Al2045     O2054   1.779       .  S
C2046      O2059   1.258       .  A
C2046      C2438   1.461   1_655  S
O2047      C2057   1.269       .  A
O2047     Al2049   1.945       .  S
O2048      C2061   1.267       .  A
O2048     Al2058   1.944       .  S
Al2049     O2062   1.866       .  S
Al2049     O2059   1.898       .  S
Al2049     O2054   1.776       .  S
O2050      C2057   1.259       .  A
O2050     Al2058   1.893       .  S
O2051      C2060   1.259       .  A
O2051     Al2058   1.904       .  S
O2052     Al2058   1.947       .  S
O2053      C2060   1.261       .  A
O2054     Al2058   1.780       .  S
O2055      C2056   1.260       .  A
C2056      C2445   1.470       .  S
C2057      C2430   1.484       .  S
C2060      C2441   1.476       .  S
C2061      O2062   1.253       .  A
C2061      C2425   1.470       .  S
O2063      C2078   1.271       .  A
O2063     Al2071   1.916       .  S
C2064      O2074   1.279       .  A
C2064      O2065   1.259       .  A
C2064      C2413   1.470       .  S
O2065     Al2067   1.863       .  S
O2066      C2068   1.254       .  A
O2066     Al2067   1.883       .  S
Al2067     O2075   1.906       .  S
Al2067     O2077   1.876       .  S
Al2067     O2076   1.784       .  S
C2068      O2081   1.254       .  A
C2068      C2409   1.458       .  S
O2069      C2079   1.268       .  A
O2069     Al2071   1.923       .  S
O2070      C2083   1.271       .  A
O2070     Al2080   1.966       .  S
Al2071     O2084   1.871       .  S
Al2071     O2081   1.899       .  S
Al2071     O2076   1.776       .  S
O2072      C2079   1.260       .  A
O2072     Al2080   1.892       .  S
O2073      C2082   1.263       .  A
O2073     Al2080   1.925       .  S
O2074     Al2080   1.981       .  S
O2075      C2082   1.255       .  A
O2076     Al2080   1.780       .  S
O2077      C2078   1.262       .  A
C2078      C2422   1.455       .  S
C2079      C2406   1.479       .  S
C2082      C3233   1.475       .  S
C2083      O2084   1.251       .  A
C2083      C2401   1.490       .  S
O2085      C2100   1.257       .  A
O2085     Al2093   1.880       .  S
C2086      O2096   1.262       .  A
C2086      O2087   1.251       .  A
C2086      C2397   1.477       .  S
O2087     Al2089   1.886       .  S
O2088      C2090   1.265       .  A
O2088     Al2089   1.903       .  S
Al2089     O2097   1.873       .  S
Al2089     O2099   1.889       .  S
Al2089     O2098   1.785       .  S
C2090      O2103   1.259       .  A
C2090      C2410   1.460       .  S
O2091      C2101   1.257       .  A
O2091     Al2093   1.881       .  S
O2092      C2105   1.258       .  A
O2092     Al2102   1.911       .  S
Al2093     O2106   1.871       .  S
Al2093     O2103   1.895       .  S
Al2093     O2098   1.790       .  S
O2094      C2101   1.268       .  A
O2094     Al2102   1.932       .  S
O2095      C2104   1.273       .  A
O2095     Al2102   1.961       .  S
O2096     Al2102   1.937       .  S
O2097      C2104   1.260       .  A
O2098     Al2102   1.788       .  S
O2099      C2100   1.253       .  A
C2100      C2393   1.453       .  S
C2101      C2385   1.476       .  S
C2104      C2390   1.492       .  S
C2105      O2106   1.254       .  A
C2105      C2382   1.464       .  S
O2107      C2122   1.267       .  A
O2107     Al2115   1.916       .  S
C2108      O2118   1.276       .  A
C2108      O2109   1.260       .  A
C2108      C2389   1.477       .  S
O2109     Al2111   1.872       .  S
O2110      C2112   1.261       .  A
O2110     Al2111   1.909       .  S
Al2111     O2119   1.923       .  S
Al2111     O2121   1.885       .  S
Al2111     O2120   1.779       .  S
C2112      O2125   1.260       .  A
C2112      C2370   1.470       .  S
O2113      C2123   1.267       .  A
O2113     Al2115   1.933       .  S
O2114      C2127   1.272       .  A
O2114     Al2124   1.968       .  S
Al2115     O2128   1.880       .  S
Al2115     O2125   1.912       .  S
Al2115     O2120   1.782       .  S
O2116      C2123   1.257       .  A
O2116     Al2124   1.886       .  S
O2117      C2126   1.259       .  A
O2117     Al2124   1.910       .  S
O2118     Al2124   1.976       .  S
O2119      C2126   1.261       .  A
O2120     Al2124   1.779       .  S
O2121      C2122   1.261       .  A
C2122      C2377   1.460       .  S
C2123      C2365   1.477       .  S
C2126      C3189   1.484       .  S
C2127      O2128   1.254       .  A
C2127      C2402   1.489       .  S
O2129      C2144   1.252       .  A
O2129     Al2137   1.872       .  S
C2130      O2140   1.264       .  A
C2130      O2131   1.256       .  A
C2130      C2361   1.478       .  S
O2131     Al2133   1.894       .  S
O2132      C2134   1.260       .  A
O2132     Al2133   1.889       .  S
Al2133     O2141   1.865       .  S
Al2133     O2143   1.911       .  S
Al2133     O2142   1.774       .  S
C2134      O2147   1.264       .  A
C2134      C2358   1.462       .  S
O2135      C2145   1.259       .  A
O2135     Al2137   1.879       .  S
O2136      C2149   1.261       .  A
O2136     Al2146   1.915       .  S
Al2137     O2150   1.883       .  S
Al2137     O2147   1.930       .  S
Al2137     O2142   1.782       .  S
O2138      C2145   1.271       .  A
O2138     Al2146   1.939       .  S
O2139      C2148   1.272       .  A
O2139     Al2146   1.962       .  S
O2140     Al2146   1.939       .  S
O2141      C2148   1.260       .  A
O2142     Al2146   1.781       .  S
O2143      C2144   1.261       .  A
C2144      C2353   1.451       .  S
C2145      C2386   1.475       .  S
C2148      C2349   1.485       .  S
C2149      O2150   1.258       .  A
C2149      C2426   1.466       .  S
O2151     Al2159   1.912       .  S
C2152      O2162   1.273       .  A
C2152      O2153   1.259       .  A
C2152      C2374   1.469       .  S
O2153     Al2155   1.866       .  S
O2154      C2156   1.265       .  A
O2154     Al2155   1.927       .  S
Al2155     O2163   1.933       .  S
Al2155     O2165   1.879       .  S
Al2155     O2164   1.781       .  S
C2156      O2169   1.258       .  A
C2156      C2345   1.466       .  S
O2157      C2167   1.267       .  A
O2157     Al2159   1.934       .  S
O2158      C2171   1.270       .  A
O2158     Al2168   1.959       .  S
Al2159     O2172   1.855       .  S
Al2159     O2169   1.893       .  S
Al2159     O2164   1.774       .  S
O2160      C2167   1.257       .  A
O2160     Al2168   1.890       .  S
O2161      C2170   1.259       .  A
O2161     Al2168   1.907       .  S
O2162     Al2168   1.958       .  S
O2163      C2170   1.264       .  A
O2164     Al2168   1.778       .  S
C2166      C2354   1.457       .  S
C2167      C2337   1.479       .  S
C2170      C2342   1.489       .  S
C2171      O2172   1.251       .  A
C2171      C2333   1.475       .  S
O2173      C2188   1.259       .  A
O2173     Al2181   1.891       .  S
C2174      O2184   1.266       .  A
C2174      O2175   1.262       .  A
C2174      C2329   1.482       .  S
O2175     Al2177   1.914       .  S
O2176      C2178   1.258       .  A
O2176     Al2177   1.891       .  S
Al2177     O2185   1.882       .  S
Al2177     O2187   1.925       .  S
Al2177     O2186   1.770       .  S
C2178      O2191   1.259       .  A
C2178      C2437   1.458       .  S
O2179      C2189   1.266       .  A
O2179     Al2181   1.906       .  S
O2180      C2193   1.265       .  A
O2180     Al2190   1.921       .  S
Al2181     O2194   1.884       .  S
Al2181     O2191   1.910       .  S
Al2181     O2186   1.783       .  S
O2182      C2189   1.264       .  A
O2182     Al2190   1.920       .  S
O2183      C2192   1.265       .  A
O2183     Al2190   1.943       .  S
O2184     Al2190   1.931       .  S
O2185      C2192   1.260       .  A
O2186     Al2190   1.781       .  S
O2187      C2188   1.266       .  A
C2188      C2326   1.470       .  S
C2189      C2366   1.477       .  S
C2192      C2362   1.487       .  S
C2193      O2194   1.259       .  A
C2193      C2321   1.462       .  S
O2195      C2210   1.259       .  A
O2195     Al2203   1.898       .  S
C2196      O2206   1.270       .  A
C2196      O2197   1.260       .  A
C2196      C2442   1.466       .  S
O2197     Al2199   1.871       .  S
O2198      C2200   1.263       .  A
O2198     Al2199   1.914       .  S
Al2199     O2207   1.921       .  S
Al2199     O2209   1.881       .  S
Al2199     O2208   1.783       .  S
C2200      O2213   1.261       .  A
C2200      C2317   1.470       .  S
O2201      C2211   1.262       .  A
O2201     Al2203   1.914       .  S
O2202      C2215   1.265       .  A
O2202     Al2212   1.936       .  S
Al2203     O2216   1.854       .  S
Al2203     O2213   1.908       .  S
Al2203     O2208   1.786       .  S
O2204      C2211   1.255       .  A
O2204     Al2212   1.894       .  S
O2205      C2214   1.253       .  A
O2205     Al2212   1.901       .  S
O2206     Al2212   1.939       .  S
O2207      C2214   1.261       .  A
O2208     Al2212   1.789       .  S
O2209      C2210   1.261       .  A
C2210      C2421   1.448       .  S
C2211      C2313   1.480       .  S
C2214      C2398   1.487       .  S
C2215      O2216   1.252       .  A
C2215      C2322   1.466       .  S
O2217      C2232   1.268       .  A
O2217     Al2225   1.932       .  S
C2218      O2228   1.275       .  A
C2218      O2219   1.260   1_556  A
C2218      C2341   1.478       .  S
O2220      C2222   1.262       .  A
O2220     Al2221   1.905       .  S
Al2221     O2229   1.910       .  S
Al2221     O2231   1.893       .  S
Al2221     O2230   1.779       .  S
C2222      O2235   1.260       .  A
C2222      C2357   1.464       .  S
O2223     Al2225   1.943       .  S
O2224     Al2234   1.953   1_554  S
Al2225     O2238   1.865       .  S
Al2225     O2235   1.905       .  S
Al2225     O2230   1.781       .  S
O2226      C2233   1.255       .  A
O2226     Al2234   1.881       .  S
O2227     Al2234   1.897   1_554  S
O2228     Al2234   1.966       .  S
O2229      C2236   1.259       .  A
O2231      C2232   1.261       .  A
C2232      C2325   1.471       .  S
C2233      C2405   1.477       .  S
C2236      C2434   1.474       .  S
C2237      O2238   1.253       .  A
C2237      C2309   1.475       .  S
O2239      C2254   1.259       .  A
O2239     Al2247   1.886       .  S
C2240      O2250   1.264       .  A
C2240      O2241   1.262       .  A
C2240      C2350   1.480       .  S
O2241     Al2243   1.908       .  S
O2242      C2244   1.256       .  A
O2242     Al2243   1.889       .  S
Al2243     O2251   1.874       .  S
Al2243     O2253   1.925       .  S
Al2243     O2252   1.773       .  S
C2244      O2257   1.259       .  A
C2244      C2346   1.462       .  S
O2245      C2255   1.268       .  A
O2245     Al2247   1.914       .  S
O2246      C2259   1.265       .  A
O2246     Al2256   1.927       .  S
Al2247     O2260   1.890       .  S
Al2247     O2257   1.919       .  S
Al2247     O2252   1.787       .  S
O2248      C2255   1.264       .  A
O2248     Al2256   1.912       .  S
O2249      C2258   1.265       .  A
O2249     Al2256   1.942       .  S
O2250     Al2256   1.931       .  S
O2251      C2258   1.258       .  A
O2252     Al2256   1.780       .  S
O2253      C2254   1.266       .  A
C2255      C2314   1.474       .  S
C2258      C2305   1.483       .  S
C2259      O2260   1.259       .  A
C2259      C2310   1.469       .  S
O2261      C2276   1.259       .  A
O2261     Al2269   1.872       .  S
C2262      O2272   1.258       .  A
C2262      O2263   1.266       .  A
C2262      C2418   1.481       .  S
O2263     Al2265   1.924       .  S
O2264      C2266   1.254       .  A
O2264     Al2265   1.890       .  S
Al2265     O2273   1.875       .  S
Al2265     O2275   1.944       .  S
Al2265     O2274   1.776       .  S
C2266      O2279   1.258       .  A
C2266      C2318   1.469       .  S
O2267      C2277   1.270       .  A
O2267     Al2269   1.910       .  S
O2268      C2281   1.260       .  A
O2268     Al2278   1.912       .  S
Al2269     O2282   1.896       .  S
Al2269     O2279   1.926       .  S
Al2269     O2274   1.785       .  S
O2270      C2277   1.268       .  A
O2270     Al2278   1.927       .  S
O2271      C2280   1.264       .  A
O2271     Al2278   1.940       .  S
O2272     Al2278   1.897       .  S
O2273      C2280   1.256       .  A
O2274     Al2278   1.782       .  S
O2275      C2276   1.272       .  A
C2276      C2446   1.462       .  S
C2277      C2338   1.478       .  S
C2280      C2330   1.488   1_655  S
C2281      O2282   1.259       .  A
C2281      C2381   1.463       .  S
O2283      C2298   1.254       .  A
O2283     Al2291   1.869       .  S
C2284      O2294   1.266       .  A
C2284      O2285   1.261       .  A
C2284      C2306   1.476       .  S
O2286      C2288   1.257       .  A
O2286     Al2287   1.888       .  S
Al2287     O2295   1.888       .  S
Al2287     O2297   1.909       .  S
Al2287     O2296   1.774       .  S
C2288      O2301   1.260       .  A
C2288      C2369   1.463   1_655  S
O2289     Al2291   1.905   1_554  S
O2290     Al2300   1.914       .  S
Al2291     O2304   1.901       .  S
Al2291     O2301   1.920       .  S
Al2291     O2296   1.788       .  S
O2292      C2299   1.264       .  A
O2292     Al2300   1.927       .  S
O2293     Al2300   1.947       .  S
O2294     Al2300   1.928       .  S
O2295      C2302   1.259       .  A
O2297      C2298   1.265       .  A
C2298      C2394   1.457       .  S
C2299      C2429   1.484       .  S
C2302      C2414   1.478       .  S
C2303      O2304   1.263       .  A
C2303      C2334   1.468       .  S
C2305      H2307   1.087       .  S
C2306      H2308   1.089       .  S
C2309      H2311   1.087       .  S
C2309      C2310   1.352       .  D
C2310      H2312   1.086       .  S
C2313      H2315   1.087       .  S
C2313      C2314   1.342       .  D
C2314      H2316   1.087       .  S
C2317      H2319   1.086       .  S
C2317      C3134   1.349       .  D
C2318      H2320   1.089   1_545  S
C2318      C3133   1.350       .  D
C2321      H2323   1.087       .  S
C2321      C2322   1.351       .  D
C2322      H2324   1.087       .  S
C2325      H2327   1.087       .  S
C2325      C2326   1.342       .  D
C2326      H2328   1.087       .  S
C2329      H2331   1.088       .  S
C2330      H2332   1.086       .  S
C2333      H2335   1.087       .  S
C2333      C2334   1.353       .  D
C2334      H2336   1.087       .  S
C2337      H2339   1.087       .  S
C2337      C2338   1.341       .  D
C2338      H2340   1.087       .  S
C2341      H2343   1.086       .  S
C2341      C2342   1.347       .  D
C2342      H2344   1.086       .  S
C2345      H2347   1.086   1_545  S
C2345      C2754   1.349   1_556  D
C2346      H2348   1.087       .  S
C2346      C2753   1.350       .  D
C2349      H2351   1.086   1_545  S
C2349      C3166   1.348   1_545  D
C2350      H2352   1.088       .  S
C2350      C3165   1.351       .  D
C2353      H2355   1.088       .  S
C2353      C2354   1.337       .  D
C2354      H2356   1.088       .  S
C2357      H2359   1.086       .  S
C2357      C2358   1.345       .  D
C2358      H2360   1.089       .  S
C2361      H2363   1.089       .  S
C2361      C2362   1.344       .  D
C2362      H2364   1.086       .  S
C2365      H2367   1.086       .  S
C2365      C2366   1.341       .  D
C2366      H2368   1.087       .  S
C2369      H2371   1.088       .  S
C2370      H2372   1.086       .  S
C2373      C2942   1.482   1_545  S
C2373      H3191   1.087       .  S
C2373      C2374   1.346       .  D
C2374      H2376   1.086       .  S
H2375      C3189   1.087       .  S
C2377      H2379   1.088       .  S
C2377      C2378   1.340       .  D
C2378      H2380   1.088       .  S
C2381      H2383   1.087       .  S
C2381      C2382   1.346       .  D
C2382      H2384   1.087       .  S
C2385      H2387   1.087       .  S
C2385      C2386   1.338       .  D
C2386      H2388   1.087       .  S
C2389      H2391   1.087       .  S
C2390      H2392   1.086   1_655  S
C2393      H2395   1.087       .  S
C2393      C2394   1.333       .  D
C2394      H2396   1.087       .  S
C2397      H2399   1.087       .  S
C2397      C2398   1.343       .  D
C2398      H2400   1.086       .  S
C2401      H2403   1.087       .  S
C2401      C2402   1.361       .  D
C2402      H2404   1.086       .  S
C2405      H2407   1.086       .  S
C2405      C2406   1.342       .  D
C2406      H2408   1.086       .  S
C2409      H2411   1.086       .  S
C2409      C2410   1.350       .  D
C2410      H2412   1.087       .  S
C2413      H2415   1.087       .  S
C2413      C2414   1.343       .  D
C2414      H2416   1.087       .  S
C2417      C2898   1.479   1_545  S
C2417      H3235   1.087       .  S
C2417      C2418   1.340       .  D
C2418      H2420   1.086       .  S
H2419      C3233   1.087       .  S
C2421      H2423   1.087       .  S
C2421      C2422   1.333       .  D
C2422      H2424   1.088       .  S
C2425      H2427   1.087       .  S
C2425      C2426   1.349       .  D
C2426      H2428   1.086       .  S
C2429      H2431   1.087       .  S
C2429      C2430   1.345       .  D
C2430      H2432   1.087       .  S
C2433      H2435   1.087   1_655  S
C2434      H2436   1.088       .  S
C2437      H2439   1.087       .  S
C2438      H2440   1.086       .  S
C2441      H2443   1.088   1_545  S
C2441      C3258   1.343   1_545  D
C2442      H2444   1.087       .  S
C2442      C3257   1.345       .  D
C2445      H2447   1.088       .  S
C2445      C2446   1.339       .  D
C2446      H2448   1.088       .  S
O2449      C2464   1.271       .  A
O2449     Al2457   1.915       .  S
C2450      O2460   1.271       .  A
C2450      O2451   1.263       .  A
C2450      C2841   1.460       .  S
O2451     Al2453   1.876       .  S
O2452      C2454   1.254       .  A
O2452     Al2453   1.884       .  S
Al2453     O2461   1.900       .  S
Al2453     O2463   1.887       .  S
Al2453     O2462   1.783       .  S
C2454      O2467   1.255       .  A
C2454      C2846   1.462   1_655  S
O2455      C2465   1.270       .  A
O2455     Al2457   1.935       .  S
O2456      C2469   1.263       .  A
O2456     Al2466   1.938       .  S
Al2457     O2470   1.874       .  S
Al2457     O2467   1.901       .  S
Al2457     O2462   1.775       .  S
O2458      C2465   1.264       .  A
O2458     Al2466   1.903       .  S
O2459      C2468   1.266       .  A
O2459     Al2466   1.930       .  S
O2460     Al2466   1.947       .  S
O2461      C2468   1.255       .  A
O2462     Al2466   1.782       .  S
O2463      C2464   1.262       .  A
C2464      C2853   1.464       .  S
C2465      C2838   1.486       .  S
C2468      C2849   1.472       .  S
C2469      O2470   1.251       .  A
C2469      C2833   1.477       .  S
O2471      C2486   1.272       .  A
O2471     Al2479   1.927       .  S
C2472      O2482   1.281       .  A
C2472      O2473   1.264       .  A
C2472      C2821   1.478       .  S
O2473     Al2475   1.878       .  S
O2474      C2476   1.255       .  A
O2474     Al2475   1.886       .  S
Al2475     O2483   1.905       .  S
Al2475     O2485   1.889       .  S
Al2475     O2484   1.783       .  S
C2476      O2489   1.252       .  A
C2476      C2817   1.456       .  S
O2477      C2487   1.269       .  A
O2477     Al2479   1.932       .  S
O2478      C2491   1.271       .  A
O2478     Al2488   1.965       .  S
Al2479     O2492   1.860       .  S
Al2479     O2489   1.894       .  S
Al2479     O2484   1.775       .  S
O2480      C2487   1.261       .  A
O2480     Al2488   1.900       .  S
O2481      C2490   1.264       .  A
O2481     Al2488   1.936       .  S
O2482     Al2488   1.983       .  S
O2483      C2490   1.254       .  A
O2484     Al2488   1.777       .  S
O2485      C2486   1.265       .  A
C2486      C2830   1.463       .  S
C2487      C2814   1.487       .  S
C2491      O2492   1.249       .  A
C2491      C2809   1.486       .  S
O2493      C2508   1.256       .  A
O2493     Al2501   1.883       .  S
C2494      O2504   1.260       .  A
C2494      O2495   1.247       .  A
C2494      C2805   1.472       .  S
O2495     Al2497   1.876       .  S
O2496      C2498   1.269       .  A
O2496     Al2497   1.907       .  S
Al2497     O2505   1.884       .  S
Al2497     O2507   1.882       .  S
Al2497     O2506   1.792       .  S
C2498      O2511   1.262       .  A
C2498      C2818   1.458       .  S
O2499      C2509   1.257       .  A
O2499     Al2501   1.887       .  S
O2500      C2513   1.260       .  A
O2500     Al2510   1.917       .  S
Al2501     O2514   1.863       .  S
Al2501     O2511   1.889       .  S
Al2501     O2506   1.785       .  S
O2502      C2509   1.267       .  A
O2502     Al2510   1.933       .  S
O2503      C2512   1.275       .  A
O2503     Al2510   1.964       .  S
O2504     Al2510   1.939       .  S
O2505      C2512   1.265       .  A
O2506     Al2510   1.788       .  S
O2507      C2508   1.248       .  A
C2508      C2801   1.454       .  S
C2509      C2793   1.484       .  S
C2512      C2798   1.493       .  S
C2513      O2514   1.253       .  A
C2513      C2790   1.467       .  S
O2515      C2530   1.267       .  A
O2515     Al2523   1.914       .  S
C2516      O2526   1.276       .  A
C2516      O2517   1.260       .  A
C2516      C2797   1.477       .  S
O2517     Al2519   1.870       .  S
O2518      C2520   1.262       .  A
O2518     Al2519   1.910       .  S
Al2519     O2527   1.920       .  S
Al2519     O2529   1.889       .  S
Al2519     O2528   1.781       .  S
C2520      O2533   1.260       .  A
C2520      C2778   1.468       .  S
O2521      C2531   1.267       .  A
O2521     Al2523   1.938       .  S
O2522      C2535   1.272       .  A
O2522     Al2532   1.965       .  S
Al2523     O2536   1.873       .  S
Al2523     O2533   1.908       .  S
Al2523     O2528   1.781       .  S
O2524      C2531   1.257       .  A
O2524     Al2532   1.890       .  S
O2525      C2534   1.258       .  A
O2525     Al2532   1.908       .  S
O2526     Al2532   1.975       .  S
O2527      C2534   1.260       .  A
O2528     Al2532   1.778       .  S
O2529      C2530   1.262       .  A
C2530      C2785   1.460       .  S
C2531      C2773   1.483       .  S
C2535      O2536   1.253       .  A
C2535      C2810   1.485       .  S
O2537      C2552   1.254       .  A
O2537     Al2545   1.875       .  S
C2538      O2548   1.262       .  A
C2538      O2539   1.254       .  A
C2538      C2769   1.475       .  S
O2539     Al2541   1.888       .  S
O2540      C2542   1.260       .  A
O2540     Al2541   1.892       .  S
Al2541     O2549   1.866       .  S
Al2541     O2551   1.902       .  S
Al2541     O2550   1.780       .  S
C2542      O2555   1.265       .  A
C2542      C2766   1.466       .  S
O2543      C2553   1.261       .  A
O2543     Al2545   1.886       .  S
O2544      C2557   1.261       .  A
O2544     Al2554   1.919       .  S
Al2545     O2558   1.890       .  S
Al2545     O2555   1.936       .  S
Al2545     O2550   1.785       .  S
O2546      C2553   1.273       .  A
O2546     Al2554   1.949       .  S
O2547      C2556   1.274       .  A
O2547     Al2554   1.970       .  S
O2548     Al2554   1.934       .  S
O2549      C2556   1.260       .  A
O2550     Al2554   1.782       .  S
O2551      C2552   1.260       .  A
C2552      C2761   1.449       .  S
C2553      C2794   1.483       .  S
C2556      C2757   1.491       .  S
C2557      O2558   1.258       .  A
C2557      C2834   1.472       .  S
O2559      C2982   1.267       .  A
O2559     Al2567   1.914       .  S
C2560      O2570   1.273       .  A
C2560      O2561   1.260       .  A
C2560      C2782   1.468       .  S
O2561     Al2563   1.870       .  S
O2562      C2564   1.263       .  A
O2562     Al2563   1.922       .  S
Al2563     O2571   1.929       .  S
Al2563     O2573   1.886       .  S
Al2563     O2572   1.781       .  S
C2564      O2577   1.257       .  A
C2564      C2753   1.465       .  S
O2565      C2575   1.267       .  A
O2565     Al2567   1.934       .  S
O2566      C2579   1.270       .  A
O2566     Al2576   1.958       .  S
Al2567     O2580   1.856       .  S
Al2567     O2577   1.893       .  S
Al2567     O2572   1.774       .  S
O2568      C2575   1.256       .  A
O2568     Al2576   1.887       .  S
O2569      C2578   1.259       .  A
O2569     Al2576   1.904       .  S
O2570     Al2576   1.956       .  S
O2571      C2578   1.264       .  A
O2572     Al2576   1.779       .  S
O2573      C2982   1.261       .  A
C2574      O2967   1.264       .  A
C2574      O2981   1.260       .  A
C2574      C2762   1.455   1_556  S
C2575      C2745   1.477       .  S
C2578      C2750   1.484       .  S
C2579      O2580   1.250       .  A
C2579      C2741   1.475       .  S
O2581      C2596   1.260       .  A
O2581     Al2589   1.894       .  S
C2582      O2592   1.266       .  A
C2582      O2583   1.262       .  A
C2582      C2737   1.481       .  S
O2583     Al2585   1.913       .  S
O2584      C2586   1.257       .  A
O2584     Al2585   1.889       .  S
Al2585     O2593   1.875       .  S
Al2585     O2595   1.925       .  S
Al2585     O2594   1.772       .  S
C2586      O2599   1.261       .  A
C2586      C2845   1.461       .  S
O2587      C2597   1.267       .  A
O2587     Al2589   1.913       .  S
O2588      C2601   1.264       .  A
O2588     Al2598   1.921       .  S
Al2589     O2602   1.893       .  S
Al2589     O2599   1.919       .  S
Al2589     O2594   1.784       .  S
O2590      C2597   1.266       .  A
O2590     Al2598   1.926       .  S
O2591      C2600   1.265       .  A
O2591     Al2598   1.943       .  S
O2592     Al2598   1.931       .  S
O2593      C2600   1.259       .  A
O2594     Al2598   1.781       .  S
O2595      C2596   1.265       .  A
C2596      C2734   1.472       .  S
C2597      C2774   1.483       .  S
C2600      C2770   1.484       .  S
C2601      O2602   1.260       .  A
C2601      C2729   1.466       .  S
O2603      C2618   1.258       .  A
O2603     Al2611   1.882       .  S
C2604      O2614   1.262       .  A
C2604      O2605   1.261       .  A
C2604      C2850   1.469       .  S
O2605     Al2607   1.908       .  S
O2606      C2608   1.260       .  A
O2606     Al2607   1.904       .  S
Al2607     O2615   1.883       .  S
Al2607     O2617   1.915       .  S
Al2607     O2616   1.776       .  S
C2608      O2621   1.259       .  A
C2608      C2725   1.469   1_565  S
O2609      C2619   1.266       .  A
O2609     Al2611   1.907       .  S
O2610      C2623   1.259       .  A
O2610     Al2620   1.912       .  S
Al2611     O2624   1.898       .  S
Al2611     O2621   1.915       .  S
Al2611     O2616   1.787       .  S
O2612      C2619   1.266       .  A
O2612     Al2620   1.921       .  S
O2613      C2622   1.260       .  A
O2613     Al2620   1.926       .  S
O2614     Al2620   1.906       .  S
O2615      C2622   1.260       .  A
O2616     Al2620   1.783       .  S
O2617      C2618   1.265       .  A
C2618      C2829   1.461       .  S
C2619      C2721   1.477       .  S
C2622      C2806   1.480       .  S
C2623      O2624   1.259       .  A
C2623      C2730   1.465       .  S
O2625      C2640   1.268       .  A
O2625     Al2633   1.931       .  S
C2626      O2636   1.274       .  A
C2626      O2627   1.260       .  A
C2626      C2749   1.473       .  S
O2627     Al3037   1.875       .  S
O2628      C2630   1.262       .  A
O2628     Al2629   1.907       .  S
Al2629     O3035   1.874       .  S
Al2629     O2637   1.916       .  S
Al2629     O2639   1.893       .  S
Al2629     O2638   1.781       .  S
C2630      O2643   1.261       .  A
C2630      C2765   1.467       .  S
O2631      C3049   1.268   1_554  A
O2631     Al2633   1.946       .  S
O2632      C3053   1.269       .  A
O2632     Al2642   1.954       .  S
Al2633     O2646   1.869       .  S
Al2633     O2643   1.907       .  S
Al2633     O2638   1.784       .  S
O2634      C2641   1.257       .  A
O2634     Al2642   1.885       .  S
O2635      C3052   1.256       .  A
O2635     Al2642   1.897       .  S
O2636     Al2642   1.961       .  S
O2637      C2644   1.260       .  A
O2638     Al3050   1.784   1_554  S
O2639      C2640   1.261       .  A
C2640      C2733   1.472       .  S
C2641      O3039   1.268       .  A
C2641      C2813   1.485       .  S
Al2642     O3046   1.781       .  S
C2644      O3043   1.255       .  A
C2644      C2842   1.478       .  S
C2645      O3040   1.269       .  A
C2645      O2646   1.254       .  A
C2645      C2717   1.476       .  S
O2647      C2662   1.259       .  A
O2647     Al2655   1.885       .  S
C2648      O2658   1.264       .  A
C2648      O2649   1.262       .  A
C2648      C2758   1.477       .  S
O2649     Al2651   1.908       .  S
O2650      C2652   1.255       .  A
O2650     Al2651   1.889       .  S
Al2651     O2659   1.873       .  S
Al2651     O2661   1.923       .  S
Al2651     O2660   1.772       .  S
C2652      O2665   1.259       .  A
C2652      C2754   1.463   1_565  S
O2653      C2663   1.268       .  A
O2653     Al2655   1.909       .  S
O2654      C2667   1.265       .  A
O2654     Al2664   1.930       .  S
Al2655     O2668   1.890       .  S
Al2655     O2665   1.923       .  S
Al2655     O2660   1.788       .  S
O2656      C2663   1.266       .  A
O2656     Al2664   1.922       .  S
O2657      C2666   1.264       .  A
O2657     Al2664   1.942       .  S
O2658     Al2664   1.927       .  S
O2659      C2666   1.258       .  A
O2660     Al2664   1.780       .  S
O2661      C2662   1.267       .  A
C2662      C3194   1.462   1_554  S
C2663      C2722   1.476       .  S
C2666      C2713   1.482       .  S
C2667      O2668   1.258       .  A
C2667      C2718   1.469       .  S
O2669      C2684   1.259       .  A
O2669     Al2677   1.867       .  S
C2670      O2680   1.256       .  A
C2670      O2671   1.267       .  A
C2670      C2826   1.477       .  S
O2671     Al2673   1.922       .  S
O2672      C2674   1.255       .  A
O2672     Al2673   1.901       .  S
Al2673     O2681   1.878       .  S
Al2673     O2683   1.933       .  S
Al2673     O2682   1.779       .  S
C2674      O2687   1.258       .  A
C2674      C2726   1.477       .  S
O2675      C2685   1.270       .  A
O2675     Al2677   1.909       .  S
O2676      C2689   1.258       .  A
O2676     Al2686   1.909       .  S
Al2677     O2690   1.900       .  S
Al2677     O2687   1.928       .  S
Al2677     O2682   1.786       .  S
O2678      C2685   1.268       .  A
O2678     Al2686   1.923       .  S
O2679      C2688   1.261       .  A
O2679     Al2686   1.932       .  S
O2680     Al2686   1.886       .  S
O2681      C2688   1.256       .  A
O2682     Al2686   1.786       .  S
O2683      C2684   1.271       .  A
C2684      C2854   1.458       .  S
C2685      C2746   1.475       .  S
C2688      C2738   1.488   1_655  S
C2689      O2690   1.259       .  A
C2689      C2789   1.464       .  S
O2691      C2706   1.258       .  A
O2691     Al2699   1.891       .  S
C2692      O2702   1.268       .  A
C2692      O2693   1.260       .  A
C2692      C2714   1.479       .  S
O2693     Al3103   1.903   1_554  S
O2694      C2696   1.259       .  A
O2694     Al2695   1.898       .  S
Al2695     O3101   1.863       .  S
Al2695     O2703   1.916       .  S
Al2695     O2705   1.888       .  S
Al2695     O2704   1.790       .  S
C2696      O2709   1.260       .  A
C2696      C2777   1.461   1_655  S
O2697      C3115   1.258       .  A
O2697     Al2699   1.897       .  S
O2698      C3119   1.266   1_554  A
O2698     Al2708   1.923       .  S
Al2699     O2712   1.862       .  S
Al2699     O2709   1.905       .  S
Al2699     O2704   1.789       .  S
O2700      C2707   1.264       .  A
O2700     Al2708   1.924       .  S
O2701      C3118   1.266   1_554  A
O2701     Al2708   1.949       .  S
O2702     Al2708   1.939       .  S
O2703      C2710   1.254       .  A
O2704     Al3116   1.786       .  S
O2705      C2706   1.265       .  A
C2706      C2802   1.451       .  S
C2707      O3105   1.265       .  A
C2707      C2837   1.483       .  S
Al2708     O3112   1.779   1_554  S
C2710      O3109   1.253       .  A
C2710      C2822   1.486       .  S
C2711      O3106   1.268       .  A
C2711      O2712   1.254       .  A
C2711      C2742   1.473       .  S
C2713      H2715   1.087       .  S
C2714      H2716   1.088   1_655  S
C2717      H2719   1.087       .  S
C2717      C2718   1.352       .  D
C2718      H2720   1.086       .  S
C2721      H2723   1.088       .  S
C2721      C2722   1.341       .  D
C2722      H2724   1.087       .  S
C2725      H2727   1.087       .  S
C2726      H2728   1.088       .  S
C2729      H2731   1.086       .  S
C2729      C2730   1.348       .  D
C2730      H2732   1.086       .  S
C2733      H2735   1.088       .  S
C2733      C2734   1.343       .  D
C2734      H2736   1.088       .  S
C2737      H2739   1.088       .  S
C2738      H2740   1.087       .  S
C2741      H2743   1.086       .  S
C2741      C2742   1.355       .  D
C2742      H2744   1.087       .  S
C2745      H2747   1.087       .  S
C2745      C2746   1.340       .  D
C2746      H2748   1.087       .  S
C2749      H2751   1.086       .  S
C2749      C2750   1.345       .  D
C2750      H2752   1.087       .  S
C2753      H2755   1.086       .  S
C2754      H2756   1.087       .  S
C2757      H2759   1.086       .  S
C2758      H2760   1.088   1_565  S
C2761      H2763   1.088       .  S
C2761      C2762   1.339       .  D
C2762      H2764   1.088       .  S
C2765      H2767   1.086       .  S
C2765      C2766   1.347       .  D
C2766      H2768   1.089       .  S
C2769      H2771   1.089       .  S
C2769      C2770   1.343       .  D
C2770      H2772   1.087       .  S
C2773      H2775   1.087       .  S
C2773      C2774   1.344       .  D
C2774      H2776   1.087       .  S
C2777      H2779   1.087       .  S
C2778      H2780   1.086       .  S
C2781      C2782   1.346       .  D
C2782      H2784   1.086       .  S
C2785      H2787   1.088       .  S
C2785      C2786   1.340       .  D
C2786      C3070   1.457       .  S
C2786      H2788   1.088       .  S
C2789      H2791   1.087       .  S
C2789      C2790   1.346       .  D
C2790      H2792   1.087       .  S
C2793      H2795   1.087       .  S
C2793      C2794   1.341       .  D
C2794      H2796   1.087       .  S
C2797      H2799   1.087       .  S
C2798      H2800   1.087   1_655  S
C2801      H2803   1.086       .  S
C2801      C2802   1.329       .  D
C2802      H2804   1.087       .  S
C2805      H2807   1.089       .  S
C2805      C2806   1.339       .  D
C2806      H2808   1.087       .  S
C2809      H2811   1.087       .  S
C2809      C2810   1.360       .  D
C2810      H2812   1.087       .  S
C2813      H2815   1.087       .  S
C2813      C2814   1.345       .  D
C2814      H2816   1.086       .  S
C2817      H2819   1.086       .  S
C2817      C2818   1.350       .  D
C2818      H2820   1.087       .  S
C2821      H2823   1.086       .  S
C2821      C2822   1.347       .  D
C2822      H2824   1.088       .  S
C2825      C2826   1.336       .  D
C2826      H2828   1.087       .  S
C2829      H2831   1.088       .  S
C2829      C2830   1.340       .  D
C2830      H2832   1.088       .  S
C2833      H2835   1.087       .  S
C2833      C2834   1.350       .  D
C2834      H2836   1.086       .  S
C2837      H2839   1.087       .  S
C2837      C2838   1.346       .  D
C2838      H2840   1.087       .  S
C2841      H2843   1.087   1_655  S
C2842      H2844   1.088       .  S
C2845      H2847   1.088       .  S
C2846      H2848   1.086       .  S
C2849      H2851   1.087       .  S
C2850      H2852   1.086   1_565  S
C2853      H2855   1.087       .  S
C2853      C2854   1.337       .  D
C2854      H2856   1.088       .  S
O2857      C2872   1.267       .  A
O2857     Al2865   1.918       .  S
C2858      O2868   1.270       .  A
C2858      O2859   1.259       .  A
C2858      C3249   1.465       .  S
O2859     Al2861   1.869       .  S
O2860      C2862   1.263       .  A
O2860     Al2861   1.907       .  S
Al2861     O2869   1.912       .  S
Al2861     O2871   1.891       .  S
Al2861     O2870   1.779       .  S
C2862      O2875   1.256       .  A
C2862      C3254   1.455   1_655  S
O2863      C2873   1.267       .  A
O2863     Al2865   1.938       .  S
O2864      C2877   1.267       .  A
O2864     Al2874   1.942       .  S
Al2865     O2878   1.863       .  S
Al2865     O2875   1.889       .  S
Al2865     O2870   1.775       .  S
O2866      C2873   1.260       .  A
O2866     Al2874   1.890       .  S
O2867      C2876   1.259       .  A
O2867     Al2874   1.906       .  S
O2868     Al2874   1.949       .  S
O2869      C2876   1.261       .  A
O2870     Al2874   1.777       .  S
O2871      C2872   1.259       .  A
C2872      C3261   1.467       .  S
C2873      C3246   1.478       .  S
C2876      C3257   1.478       .  S
C2877      O2878   1.253       .  A
C2877      C3241   1.468       .  S
O2879      C2894   1.272       .  A
O2879     Al2887   1.924       .  S
C2880      O2890   1.279       .  A
C2880      O2881   1.260       .  A
C2880      C3229   1.474       .  S
O2881     Al2883   1.868       .  S
O2882      C2884   1.255       .  A
O2882     Al2883   1.885       .  S
Al2883     O2891   1.910       .  S
Al2883     O2893   1.880       .  S
Al2883     O2892   1.784       .  S
C2884      O2897   1.254       .  A
C2884      C3225   1.457       .  S
O2885      C2895   1.270       .  A
O2885     Al2887   1.939       .  S
O2886      C2899   1.271       .  A
O2886     Al2896   1.966       .  S
Al2887     O2900   1.868       .  S
Al2887     O2897   1.897       .  S
Al2887     O2892   1.775       .  S
O2888      C2895   1.260       .  A
O2888     Al2896   1.893       .  S
O2889      C2898   1.263       .  A
O2889     Al2896   1.928       .  S
O2890     Al2896   1.983       .  S
O2891      C2898   1.257       .  A
O2892     Al2896   1.779       .  S
O2893      C2894   1.262       .  A
C2894      C3238   1.461       .  S
C2895      C3222   1.486       .  S
C2899      O2900   1.250       .  A
C2899      C3217   1.488       .  S
O2901      C2916   1.256       .  A
O2901     Al2909   1.876       .  S
C2902      O2912   1.261       .  A
C2902      O2903   1.253       .  A
C2902      C3213   1.475       .  S
O2903     Al2905   1.889       .  S
O2904      C2906   1.265       .  A
O2904     Al2905   1.905       .  S
Al2905     O2913   1.878       .  S
Al2905     O2915   1.895       .  S
Al2905     O2914   1.786       .  S
C2906      O2919   1.259       .  A
C2906      C3226   1.460       .  S
O2907      C2917   1.256       .  A
O2907     Al2909   1.874       .  S
O2908      C2921   1.258       .  A
O2908     Al2918   1.912       .  S
Al2909     O2922   1.870       .  S
Al2909     O2919   1.893       .  S
Al2909     O2914   1.788       .  S
O2910      C2917   1.270       .  A
O2910     Al2918   1.941       .  S
O2911      C2920   1.273       .  A
O2911     Al2918   1.962       .  S
O2912     Al2918   1.931       .  S
O2913      C2920   1.261       .  A
O2914     Al2918   1.786       .  S
O2915      C2916   1.254       .  A
C2916      C3209   1.452       .  S
C2917      C3201   1.476       .  S
C2920      C3206   1.493       .  S
C2921      O2922   1.254       .  A
C2921      C3198   1.463       .  S
O2923      C2938   1.268       .  A
O2923     Al2931   1.924       .  S
C2924      O2934   1.276       .  A
C2924      O2925   1.260       .  A
C2924      C3205   1.478       .  S
O2925     Al2927   1.871       .  S
O2926      C2928   1.261       .  A
O2926     Al2927   1.907       .  S
Al2927     O2935   1.919       .  S
Al2927     O2937   1.887       .  S
Al2927     O2936   1.779       .  S
C2928      O2941   1.260       .  A
C2928      C3186   1.468       .  S
O2929      C2939   1.268       .  A
O2929     Al2931   1.938       .  S
O2930      C2943   1.272       .  A
O2930     Al2940   1.965       .  S
Al2931     O2944   1.876       .  S
Al2931     O2941   1.908       .  S
Al2931     O2936   1.783       .  S
O2932      C2939   1.257       .  A
O2932     Al2940   1.889       .  S
O2933      C2942   1.258       .  A
O2933     Al2940   1.911       .  S
O2934     Al2940   1.975       .  S
O2935      C2942   1.260       .  A
O2936     Al2940   1.780       .  S
O2937      C2938   1.261       .  A
C2938      C3193   1.463       .  S
C2939      C3181   1.483       .  S
C2943      O2944   1.254       .  A
C2943      C3218   1.487       .  S
O2945      C2960   1.253       .  A
O2945     Al2953   1.875       .  S
C2946      O2956   1.263       .  A
C2946      O2947   1.256       .  A
C2946      C3177   1.476       .  S
O2947     Al2949   1.898       .  S
O2948      C2950   1.260       .  A
O2948     Al2949   1.889       .  S
Al2949     O2957   1.865       .  S
Al2949     O2959   1.919       .  S
Al2949     O2958   1.774       .  S
C2950      O2963   1.263       .  A
C2950      C3174   1.459       .  S
O2951      C2961   1.258       .  A
O2951     Al2953   1.878       .  S
O2952      C2965   1.260       .  A
O2952     Al2962   1.909       .  S
Al2953     O2966   1.884       .  S
Al2953     O2963   1.923       .  S
Al2953     O2958   1.782       .  S
O2954      C2961   1.272       .  A
O2954     Al2962   1.947       .  S
O2955      C2964   1.274       .  A
O2955     Al2962   1.971       .  S
O2956     Al2962   1.934       .  S
O2957      C2964   1.260       .  A
O2958     Al2962   1.780       .  S
O2959      C2960   1.262       .  A
C2960      C3169   1.457       .  S
C2961      C3202   1.478       .  S
C2964      C3165   1.489       .  S
C2965      O2966   1.258       .  A
C2965      C3242   1.463       .  S
O2967     Al2975   1.899       .  S
C2968      O2978   1.274       .  A
C2968      O2969   1.259       .  A
C2968      C3190   1.471       .  S
O2969     Al2971   1.865       .  S
O2970      C2972   1.265       .  A
O2970     Al2971   1.926       .  S
Al2971     O2979   1.930       .  S
Al2971     O2981   1.886       .  S
Al2971     O2980   1.784       .  S
C2972      O2985   1.259       .  A
C2972      C3161   1.466       .  S
O2973      C2983   1.264       .  A
O2973     Al2975   1.926       .  S
O2974      C2987   1.272       .  A
O2974     Al2984   1.964       .  S
Al2975     O2988   1.855       .  S
Al2975     O2985   1.896       .  S
Al2975     O2980   1.777       .  S
O2976      C2983   1.256       .  A
O2976     Al2984   1.891       .  S
O2977      C2986   1.256       .  A
O2977     Al2984   1.901       .  S
O2978     Al2984   1.961       .  S
O2979      C2986   1.262       .  A
O2980     Al2984   1.777       .  S
C2982      C3170   1.462       .  S
C2983      C3153   1.477       .  S
C2986      C3158   1.486       .  S
C2987      O2988   1.251       .  A
C2987      C3149   1.478       .  S
O2989      C3004   1.259       .  A
O2989     Al2997   1.892       .  S
C2990      O3000   1.266       .  A
C2990      O2991   1.262       .  A
C2990      C3145   1.481       .  S
O2991     Al2993   1.911       .  S
O2992      C2994   1.257       .  A
O2992     Al2993   1.889       .  S
Al2993     O3001   1.880       .  S
Al2993     O3003   1.926       .  S
Al2993     O3002   1.775       .  S
C2994      O3007   1.258       .  A
C2994      C3253   1.456       .  S
O2995      C3005   1.267       .  A
O2995     Al2997   1.914       .  S
O2996      C3009   1.266       .  A
O2996     Al3006   1.926       .  S
Al2997     O3010   1.880       .  S
Al2997     O3007   1.903       .  S
Al2997     O3002   1.785       .  S
O2998      C3005   1.264       .  A
O2998     Al3006   1.919       .  S
O2999      C3008   1.264       .  A
O2999     Al3006   1.941       .  S
O3000     Al3006   1.932       .  S
O3001      C3008   1.259       .  A
O3002     Al3006   1.781       .  S
O3003      C3004   1.265       .  A
C3004      C3142   1.471       .  S
C3005      C3182   1.481       .  S
C3008      C3178   1.485       .  S
C3009      O3010   1.258       .  A
C3009      C3137   1.464       .  S
O3011      C3026   1.260       .  A
O3011     Al3019   1.898       .  S
C3012      O3022   1.270       .  A
C3012      O3013   1.261       .  A
C3012      C3258   1.463       .  S
O3013     Al3015   1.871       .  S
O3014      C3016   1.262       .  A
O3014     Al3015   1.910       .  S
Al3015     O3023   1.917       .  S
Al3015     O3025   1.888       .  S
Al3015     O3024   1.785       .  S
C3016      O3029   1.260       .  A
C3016      C3133   1.471   1_565  S
O3017      C3027   1.263       .  A
O3017     Al3019   1.918       .  S
O3018      C3031   1.265       .  A
O3018     Al3028   1.936       .  S
Al3019     O3032   1.859       .  S
Al3019     O3029   1.909       .  S
Al3019     O3024   1.785       .  S
O3020      C3027   1.256       .  A
O3020     Al3028   1.897       .  S
O3021      C3030   1.255       .  A
O3021     Al3028   1.903       .  S
O3022     Al3028   1.937       .  S
O3023      C3030   1.260       .  A
O3024     Al3028   1.790       .  S
O3025      C3026   1.263       .  A
C3026      C3237   1.451       .  S
C3027      C3129   1.483       .  S
C3030      C3214   1.485       .  S
C3031      O3032   1.252       .  A
C3031      C3138   1.468       .  S
O3033      C3048   1.269       .  A
O3033     Al3041   1.933       .  S
C3034      O3044   1.274       .  A
C3034      O3035   1.259   1_556  A
C3034      C3157   1.475       .  S
O3036      C3038   1.261       .  A
O3036     Al3037   1.901       .  S
Al3037     O3045   1.913       .  S
Al3037     O3047   1.896       .  S
Al3037     O3046   1.781       .  S
C3038      O3051   1.258       .  A
C3038      C3173   1.460       .  S
O3039     Al3041   1.947       .  S
O3040     Al3050   1.950   1_554  S
Al3041     O3054   1.864       .  S
Al3041     O3051   1.900       .  S
Al3041     O3046   1.780       .  S
O3042      C3049   1.256       .  A
O3042     Al3050   1.885       .  S
O3043     Al3050   1.896   1_554  S
O3044     Al3050   1.962       .  S
O3045      C3052   1.260       .  A
O3047      C3048   1.262       .  A
C3048      C3141   1.474       .  S
C3049      C3221   1.485       .  S
C3052      C3250   1.475       .  S
C3053      O3054   1.253       .  A
C3053      C3125   1.476       .  S
O3055      C3070   1.258       .  A
O3055     Al3063   1.880       .  S
C3056      O3066   1.264       .  A
C3056      O3057   1.261       .  A
C3056      C3166   1.475       .  S
O3057     Al3059   1.903       .  S
O3058      C3060   1.257       .  A
O3058     Al3059   1.892       .  S
Al3059     O3067   1.885       .  S
Al3059     O3069   1.913       .  S
Al3059     O3068   1.775       .  S
C3060      O3073   1.259       .  A
C3060      C3162   1.465   1_565  S
O3061      C3071   1.268       .  A
O3061     Al3063   1.916       .  S
O3062      C3075   1.264       .  A
O3062     Al3072   1.924       .  S
Al3063     O3076   1.893       .  S
Al3063     O3073   1.922       .  S
Al3063     O3068   1.791       .  S
O3064      C3071   1.265       .  A
O3064     Al3072   1.916       .  S
O3065      C3074   1.264       .  A
O3065     Al3072   1.940       .  S
O3066     Al3072   1.927       .  S
O3067      C3074   1.259       .  A
O3068     Al3072   1.780       .  S
O3069      C3070   1.265       .  A
C3071      C3130   1.477       .  S
C3074      C3121   1.486       .  S
C3075      O3076   1.260       .  A
C3075      C3126   1.469       .  S
O3077      C3092   1.259       .  A
O3077     Al3085   1.867       .  S
C3078      O3088   1.257       .  A
C3078      O3079   1.266       .  A
C3078      C3234   1.478       .  S
O3079     Al3081   1.921       .  S
O3080      C3082   1.254       .  A
O3080     Al3081   1.892       .  S
Al3081     O3089   1.879       .  S
Al3081     O3091   1.938       .  S
Al3081     O3090   1.776       .  S
C3082      O3095   1.258       .  A
C3082      C3134   1.468       .  S
O3083      C3093   1.268       .  A
O3083     Al3085   1.903       .  S
O3084      C3097   1.259       .  A
O3084     Al3094   1.908       .  S
Al3085     O3098   1.899       .  S
Al3085     O3095   1.926       .  S
Al3085     O3090   1.785       .  S
O3086      C3093   1.270       .  A
O3086     Al3094   1.933       .  S
O3087      C3096   1.265       .  A
O3087     Al3094   1.942       .  S
O3088     Al3094   1.893       .  S
O3089      C3096   1.256       .  A
O3090     Al3094   1.781       .  S
O3091      C3092   1.271       .  A
C3092      C3262   1.459       .  S
C3093      C3154   1.477       .  S
C3096      C3146   1.491   1_655  S
C3097      O3098   1.260       .  A
C3097      C3197   1.462       .  S
O3099      C3114   1.254       .  A
O3099     Al3107   1.873       .  S
C3100      O3110   1.276       .  A
C3100      O3101   1.260       .  A
C3100      C3122   1.472       .  S
O3102      C3104   1.258       .  A
O3102     Al3103   1.887       .  S
Al3103     O3111   1.885       .  S
Al3103     O3113   1.902       .  S
Al3103     O3112   1.776       .  S
C3104      O3117   1.264       .  A
C3104      C3185   1.468   1_655  S
O3105     Al3107   1.912   1_554  S
O3106     Al3116   1.941       .  S
Al3107     O3120   1.899       .  S
Al3107     O3117   1.934       .  S
Al3107     O3112   1.790       .  S
O3108      C3115   1.257       .  A
O3108     Al3116   1.904       .  S
O3109     Al3116   1.908       .  S
O3110     Al3116   1.961       .  S
O3111      C3118   1.258       .  A
O3113      C3114   1.262       .  A
C3114      C3210   1.456       .  S
C3115      C3245   1.483       .  S
C3118      C3230   1.483       .  S
C3119      O3120   1.262       .  A
C3119      C3150   1.470       .  S
C3121      H3123   1.087       .  S
C3122      H3124   1.087   1_655  S
C3125      H3127   1.087       .  S
C3125      C3126   1.352       .  D
C3126      H3128   1.086       .  S
C3129      H3131   1.087       .  S
C3129      C3130   1.343       .  D
C3130      H3132   1.087       .  S
C3133      H3135   1.086       .  S
C3134      H3136   1.089       .  S
C3137      H3139   1.087       .  S
C3137      C3138   1.351       .  D
C3138      H3140   1.087       .  S
C3141      H3143   1.087       .  S
C3141      C3142   1.344       .  D
C3142      H3144   1.087       .  S
C3145      H3147   1.088       .  S
C3146      H3148   1.087       .  S
C3149      H3151   1.087       .  S
C3149      C3150   1.354       .  D
C3150      H3152   1.086       .  S
C3153      H3155   1.087       .  S
C3153      C3154   1.343       .  D
C3154      H3156   1.087       .  S
C3157      H3159   1.086       .  S
C3157      C3158   1.345       .  D
C3158      H3160   1.087       .  S
C3161      H3163   1.087       .  S
C3162      H3164   1.086       .  S
C3165      H3167   1.085       .  S
C3166      H3168   1.088   1_565  S
C3169      H3171   1.087       .  S
C3169      C3170   1.339       .  D
C3170      H3172   1.087       .  S
C3173      H3175   1.087       .  S
C3173      C3174   1.345       .  D
C3174      H3176   1.089       .  S
C3177      H3179   1.089       .  S
C3177      C3178   1.344       .  D
C3178      H3180   1.086       .  S
C3181      H3183   1.087       .  S
C3181      C3182   1.342       .  D
C3182      H3184   1.087       .  S
C3185      H3187   1.088       .  S
C3186      H3188   1.086       .  S
C3189      C3190   1.346       .  D
C3190      H3192   1.086       .  S
C3193      H3195   1.088       .  S
C3193      C3194   1.340       .  D
C3194      H3196   1.087       .  S
C3197      H3199   1.087       .  S
C3197      C3198   1.345       .  D
C3198      H3200   1.087       .  S
C3201      H3203   1.087       .  S
C3201      C3202   1.336       .  D
C3202      H3204   1.087       .  S
C3205      H3207   1.087       .  S
C3206      H3208   1.087   1_655  S
C3209      H3211   1.087       .  S
C3209      C3210   1.335       .  D
C3210      H3212   1.087       .  S
C3213      H3215   1.086       .  S
C3213      C3214   1.343       .  D
C3214      H3216   1.086       .  S
C3217      H3219   1.087       .  S
C3217      C3218   1.360       .  D
C3218      H3220   1.086       .  S
C3221      H3223   1.087       .  S
C3221      C3222   1.344       .  D
C3222      H3224   1.086       .  S
C3225      H3227   1.087       .  S
C3225      C3226   1.350       .  D
C3226      H3228   1.088       .  S
C3229      H3231   1.087       .  S
C3229      C3230   1.346       .  D
C3230      H3232   1.086       .  S
C3233      C3234   1.338       .  D
C3234      H3236   1.086       .  S
C3237      H3239   1.088       .  S
C3237      C3238   1.334       .  D
C3238      H3240   1.088       .  S
C3241      H3243   1.088       .  S
C3241      C3242   1.348       .  D
C3242      H3244   1.087       .  S
C3245      H3247   1.087       .  S
C3245      C3246   1.347       .  D
C3246      H3248   1.088       .  S
C3249      H3251   1.087   1_655  S
C3250      H3252   1.088       .  S
C3253      H3255   1.088       .  S
C3254      H3256   1.086       .  S
C3257      H3259   1.087       .  S
C3258      H3260   1.087   1_565  S
C3261      H3263   1.088       .  S
C3261      C3262   1.338       .  D
C3262      H3264   1.088       .  S
