geometry optimzed in LAMMPS
_audit_creation_date              2020-12-01 
_audit_creation_method            'lammps2cif' 
_symmetry_space_group_name_H-M    'P1' 
_symmetry_Int_Tables_number       1 
_symmetry_cell_setting            triclinic 
loop_ 
_symmetry_equiv_pos_as_xyz 
  x,y,z 
_cell_length_a                    39.77691835 
_cell_length_b                    38.77959053815122 
_cell_length_c                    35.49533028320893 
_cell_angle_alpha                 89.55374552828698 
_cell_angle_beta                  90.16779421543194 
_cell_angle_gamma                 89.5106511469051 
loop_ 
_atom_site_label 
_atom_site_type_symbol 
_atom_site_fract_x 
_atom_site_fract_y 
_atom_site_fract_z 
_atom_site_charge 
O1          O  0.41034309  0.32632958  0.62488517    -0.83000
C2          C  0.00340757  0.40829906  0.70852228     0.96300
O3          O  0.00624352  0.37617612  0.70263807    -0.72100
O4          O  0.45243850  0.34062356  0.72329352    -0.75700
Al5        Al  0.47513334  0.34078373  0.67651767     1.49000
C6          C  0.42135095  0.33530970  0.72745665     0.91600
O7          O  0.39200238  0.40624824  0.68056590    -0.81900
O8          O  0.44981599  0.40350539  0.59114098    -0.75500
Al9        Al  0.40408882  0.36614201  0.65362569     1.90100
O10         O  0.42661678  0.44071698  0.65109821    -0.74600
O11         O  0.00689258  0.39428653  0.62694942    -0.74400
O12         O  0.48356031  0.42386848  0.68732033    -0.80100
O13         O  0.99996094  0.33893450  0.63586624    -0.78300
O14         O  0.44806594  0.37324739  0.65729001    -1.14400
O15         O  0.44913967  0.30150638  0.65960302    -0.73600
C16         C  0.42510888  0.29963816  0.63629953     0.97100
C17         C  0.39925912  0.43584564  0.66848186     0.93500
Al18       Al  0.46538887  0.41218818  0.63990729     1.55600
O19         O  0.40085640  0.34102433  0.70067157    -0.78200
C20         C  0.01350127  0.36347387  0.61795114     0.97700
C21         C  0.41994032  0.39744418  0.58196700     0.92500
O22         O  0.39822094  0.38906993  0.60609406    -0.83600
O23         O  0.08004009  0.34470415  0.38648786    -0.83000
C24         C  0.15482891  0.23785476  0.45600048     0.96300
O25         O  0.12299030  0.23714906  0.45075054    -0.72100
O26         O  0.08784713  0.29187141  0.47575060    -0.75700
Al27       Al  0.09115405  0.27096971  0.42745247     1.49000
C28         C  0.08743932  0.32343395  0.48414780     0.91600
O29         O  0.16020256  0.35209989  0.43923630    -0.81900
O30         O  0.15269353  0.29980068  0.34532401    -0.75500
Al31       Al  0.11948426  0.34459991  0.41288760     1.90100
O32         O  0.19058814  0.31776853  0.40470690    -0.74600
O33         O  0.14240192  0.23849170  0.37358979    -0.74400
O34         O  0.17228563  0.25989456  0.43870526    -0.80100
O35         O  0.08881306  0.24672463  0.38113125    -0.78300
O36         O  0.12380861  0.29881336  0.41148105    -1.14400
O37         O  0.05392695  0.29909459  0.40666383    -0.73600
C38         C  0.05400807  0.32705828  0.38774647     0.97100
C39         C  0.18781026  0.34467147  0.42414897     0.93500
Al40       Al  0.16122878  0.28048473  0.39265826     1.55600
O41         O  0.09711404  0.34581767  0.46056978    -0.78200
C42         C  0.11259598  0.23216098  0.36409204     0.97700
C43         C  0.14892525  0.33156798  0.33887317     0.92500
O44         O  0.14004479  0.35228382  0.36443438    -0.83600
O45         O  0.08147058  0.17434346  0.13527297    -0.83000
C46         C  0.48181443  0.09097294  0.20551233     0.96300
O47         O  0.48086973  0.12389533  0.20378798    -0.72100
O48         O  0.03838736  0.15503275  0.22898300    -0.75700
Al49       Al  0.01421554  0.15854028  0.18312900     1.49000
C50         C  0.06984401  0.15567052  0.23362878     0.91600
O51         O  0.09269003  0.08596092  0.17648335    -0.81900
O52         O  0.03203230  0.10569250  0.09138143    -0.75500
Al53       Al  0.08347458  0.13065258  0.15647867     1.90100
O54         O  0.05620345  0.05942760  0.14176809    -0.74600
O55         O  0.47200351  0.11334455  0.12951070    -0.74400
O56         O  0.50182788  0.07431598  0.18443971    -0.80100
O57         O  0.48387207  0.16700754  0.13907413    -0.78300
O58         O  0.03909785  0.12674366  0.16028750    -1.14400
O59         O  0.04062368  0.19820799  0.16697339    -0.73600
C60         C  0.06560613  0.20068657  0.14506060     0.97100
C61         C  0.08452373  0.05997779  0.15770483     0.93500
Al62       Al  0.01875405  0.09092271  0.13931178     1.55600
O63         O  0.08952511  0.14842203  0.20668919    -0.78200
C64         C  0.46735600  0.14469365  0.12144751     0.97700
C65         C  0.06158405  0.11214658  0.08068685     0.92500
O66         O  0.08505507  0.11548404  0.10465821    -0.83600
O67         O  0.39968363  0.14868189  0.88965045    -0.83000
C68         C  0.32692426  0.25969087  0.94940532     0.96300
O69         O  0.35883384  0.25943325  0.94574632    -0.72100
O70         O  0.38847877  0.20546993  0.97549732    -0.75700
Al71       Al  0.38984671  0.22389867  0.92678379     1.49000
C72         C  0.38985653  0.17453451  0.98603988     0.91600
O73         O  0.31766382  0.14785637  0.93964663    -0.81900
O74         O  0.33321591  0.19464877  0.84164313    -0.75500
Al75       Al  0.35949018  0.15137151  0.91462240     1.90100
O76         O  0.29067062  0.18100519  0.89947191    -0.74600
O77         O  0.34444408  0.25655071  0.86586360    -0.74400
O78         O  0.30900626  0.23976537  0.93001218    -0.80100
O79         O  0.39646101  0.24548520  0.88010250    -0.78300
O80         O  0.35720212  0.19720794  0.90981631    -1.14400
O81         O  0.42644576  0.19351416  0.91062505    -0.73600
C82         C  0.42601946  0.16590052  0.89163774     0.97100
C83         C  0.29106382  0.15579931  0.92228578     0.93500
Al84       Al  0.32210721  0.21647664  0.88649314     1.55600
O85         O  0.38134876  0.15090290  0.96361314    -0.78200
C86         C  0.37533532  0.25970849  0.85883458     0.97700
C87         C  0.33615977  0.16258344  0.83759916     0.92500
O88         O  0.33973934  0.14233777  0.86560153    -0.83600
O89         O  0.14690053  0.10373033  0.87374365    -0.83000
C90         C  0.07868945  0.49052537  0.81301481     0.96300
O91         O  0.11058893  0.49252249  0.81662212    -0.72100
O92         O  0.14146155  0.04536648  0.78945776    -0.75700
Al93       Al  0.14035198  0.02723723  0.83879165     1.49000
C94         C  0.14036706  0.07607928  0.77806825     0.91600
O95         O  0.06622554  0.10204217  0.82115002    -0.81900
O96         O  0.07919034  0.05815095  0.92094864    -0.75500
Al97       Al  0.10726491  0.09969122  0.84772105     1.90100
O98         O  0.03894140  0.06901041  0.86047110    -0.74600
O99         O  0.09224625  0.49386542  0.89584957    -0.74400
O100        O  0.05945016  0.51094578  0.83030125    -0.80100
O101        O  0.14474040  0.50507591  0.88461048    -0.78300
O102        O  0.10625958  0.05385968  0.85372396    -1.14400
O103        O  0.17549923  0.05820491  0.85710469    -0.73600
C104        C  0.17361036  0.08676552  0.87444228     0.97100
C105        C  0.03947923  0.09403517  0.83755995     0.93500
Al106      Al  0.07085605  0.03467524  0.87615436     1.55600
O107        O  0.12952119  0.09946227  0.79960634    -0.78200
C108        C  0.12290447  0.49006097  0.90391663     0.97700
C109        C  0.08102190  0.09038143  0.92402622     0.92500
O110        O  0.08630776  0.10971519  0.89572910    -0.83600
O111        O  0.33913333  0.07823995  0.62758025    -0.83000
C112        C  0.23532346  0.15137271  0.55614945     0.96300
O113        O  0.23462269  0.11875252  0.56234583    -0.72100
O114        O  0.28917180  0.08191742  0.54452784    -0.75700
Al115      Al  0.26566689  0.08754985  0.59037725     1.49000
C116        C  0.31891790  0.08746612  0.53415258     0.91600
O117        O  0.34113899  0.16568950  0.58279152    -0.81900
O118        O  0.28578492  0.14894695  0.67235365    -0.75500
Al119      Al  0.33565331  0.12131448  0.60530793     1.90100
O120        O  0.30529487  0.19163407  0.61815326    -0.74600
O121        O  0.22762086  0.14030958  0.63745375    -0.74400
O122        O  0.25325045  0.17119275  0.57599892    -0.80100
O123        O  0.23863899  0.08599535  0.63473135    -0.78300
O124        O  0.29068569  0.12252994  0.60589554    -1.14400
O125        O  0.29217995  0.05187342  0.61565369    -0.73600
C126        C  0.32103848  0.05227062  0.63085002     0.97100
C127        C  0.33286806  0.19177391  0.60135860     0.93500
Al128      Al  0.26989162  0.15975573  0.62391521     1.55600
O129        O  0.33930734  0.10260133  0.55569626    -0.78200
C130        C  0.22152307  0.11023142  0.64821085     0.97700
C131        C  0.31630253  0.14346540  0.68119268     0.92500
O132        O  0.33873568  0.13849802  0.65626211    -0.83600
O133        O  0.32942587  0.40088138  0.37815957    -0.83000
C134        C  0.40132468  0.00669665  0.30559671     0.96300
O135        O  0.36994533  0.00800835  0.31297031    -0.72100
O136        O  0.33175096  0.45468436  0.29153319    -0.75700
Al137      Al  0.33649165  0.47596896  0.33894560     1.49000
C138        C  0.33378825  0.42346977  0.28211052     0.91600
O139        O  0.41019125  0.39783352  0.32532444    -0.81900
O140        O  0.40013881  0.45088526  0.41865917    -0.75500
Al141      Al  0.36934332  0.40338384  0.35190842     1.90100
O142        O  0.43880664  0.43307345  0.36002323    -0.74600
O143        O  0.39126349  0.01046211  0.38875795    -0.74400
O144        O  0.42084673  0.98675368  0.32368624    -0.80100
O145        O  0.33815340  0.99934372  0.38372189    -0.78300
O146        O  0.37100253  0.44941108  0.35344233    -1.14400
O147        O  0.30199344  0.44751630  0.36175798    -0.73600
C148        C  0.30338109  0.41899123  0.37940606     0.97100
C149        C  0.43756182  0.40655317  0.33986153     0.93500
Al150      Al  0.40785085  0.46947924  0.37127967     1.55600
O151        O  0.34697334  0.40145461  0.30414264    -0.78200
C152        C  0.36146893  0.01525960  0.39969491     0.97700
C153        C  0.39657095  0.41931597  0.42611727     0.92500
O154        O  0.39063272  0.39728449  0.40069171    -0.83600
O155        O  0.16031910  0.42630327  0.13459328    -0.83000
C156        C  0.25014642  0.34155107  0.05509177     0.96300
O157        O  0.25395757  0.37361852  0.06069455    -0.72100
O158        O  0.19885463  0.40525532  0.03645263    -0.75700
Al159      Al  0.22304664  0.40759579  0.08187461     1.49000
C160        C  0.16768008  0.41095084  0.03325988     0.91600
O161        O  0.14052245  0.34262485  0.08735647    -0.81900
O162        O  0.20352394  0.35097979  0.17200882    -0.75500
Al163      Al  0.15341061  0.38453296  0.10997078     1.90100
O164        O  0.17630495  0.31015704  0.11862068    -0.74600
O165        O  0.25904430  0.35841086  0.13468573    -0.74400
O166        O  0.22974986  0.32418046  0.07470140    -0.80100
O167        O  0.24881448  0.41326331  0.12629529    -0.78300
O168        O  0.19703824  0.37676302  0.10439388    -1.14400
O169        O  0.19773588  0.44824070  0.09671501    -0.73600
C170        C  0.17489467  0.45192322  0.12103992     0.97100
C171        C  0.14804337  0.31429710  0.10279847     0.93500
Al172      Al  0.21564829  0.33867556  0.12313214     1.55600
O173        O  0.14784905  0.40625897  0.06079642    -0.78200
C174        C  0.26457785  0.38950109  0.14331468     0.97700
C175        C  0.17444904  0.35852769  0.18351346     0.92500
O176        O  0.15109424  0.36545204  0.16025851    -0.83600
C177        C  0.31958583  0.41300487  0.24498581    -0.07300
C178        C  0.31455812  0.43860295  0.21717832    -0.18500
C179        C  0.29898995  0.43137022  0.18271742     0.09900
C180        C  0.28738887  0.39762194  0.17540660    -0.07300
C181        C  0.29386497  0.37164420  0.20242188    -0.18500
C182        C  0.30922698  0.37893116  0.23701880     0.09900
S183        S  0.29492753  0.46662210  0.14955355    -0.33500
S184        S  0.31204557  0.34398153  0.27064418    -0.33500
H185        H  0.29614085  0.36268063  0.29950802     0.27900
H186        H  0.30287929  0.44638799  0.11800343     0.27900
H187        H  0.32268451  0.46471775  0.22232433     0.18500
H188        H  0.28493235  0.34574133  0.19772468     0.18500
C189        C  0.33055810  0.07390471  0.49716212    -0.07300
C190        C  0.36422851  0.06309873  0.49364065    -0.18500
C191        C  0.37572679  0.04583601  0.46147487     0.09900
C192        C  0.35310768  0.03870297  0.43164487    -0.07300
C193        C  0.31981588  0.05100358  0.43452021    -0.18500
C194        C  0.30834475  0.06854460  0.46657322     0.09900
S195        S  0.41876858  0.03115482  0.46204593    -0.33500
S196        S  0.26527836  0.08395157  0.46765262    -0.33500
H197        H  0.25649255  0.07470999  0.43069769     0.27900
H198        H  0.42680019  0.04893161  0.42859629     0.27900
H199        H  0.38151859  0.06682575  0.51682800     0.18500
H200        H  0.30237294  0.04607814  0.41180677     0.18500
C201        C  0.15576530  0.42851141  0.99874002    -0.07300
C202        C  0.17158357  0.45959280  0.98979106    -0.18500
C203        C  0.16052443  0.48030991  0.96001567     0.09900
C204        C  0.13369394  0.46922971  0.93697154    -0.07300
C205        C  0.11768351  0.43794122  0.94578058    -0.18500
C206        C  0.12855497  0.41737490  0.97643168     0.09900
S207        S  0.19306119  0.01373545  0.94677068    -0.33500
S208        S  0.10771281  0.37694383  0.98483804    -0.33500
H209        H  0.13506063  0.36020166  0.00254718     0.27900
H210        H  0.16592539  0.03722773  0.94440155     0.27900
H211        H  0.19192732  0.46872600  0.00744220     0.18500
H212        H  0.09709357  0.42917823  0.92830360     0.18500
C213        C  0.15463477  0.08510852  0.74033216    -0.07300
C214        C  0.16269263  0.11968160  0.73276285    -0.18500
C215        C  0.18208439  0.12912668  0.70147253     0.09900
C216        C  0.19526538  0.10329934  0.67732787    -0.07300
C217        C  0.18511338  0.06908419  0.68333943    -0.18500
C218        C  0.16439217  0.05989520  0.71361020     0.09900
S219        S  0.19035575  0.17445083  0.69572155    -0.33500
S220        S  0.15145372  0.01550161  0.71604949    -0.33500
H221        H  0.11850575  0.02353478  0.72764713     0.27900
H222        H  0.17822736  0.17543428  0.65842209     0.27900
H223        H  0.15486655  0.13964191  0.75216275     0.18500
H224        H  0.19365588  0.04904287  0.66443177     0.18500
C225        C  0.30915519  0.28353343  0.97574746    -0.07300
C226        C  0.27456985  0.28967660  0.96943989    -0.18500
C227        C  0.25513030  0.30944280  0.99405533     0.09900
C228        C  0.27027953  0.32401295  0.02602124    -0.07300
C229        C  0.30495179  0.31940072  0.03182945    -0.18500
C230        C  0.32442033  0.29897231  0.00750779     0.09900
S231        S  0.21100064  0.31472968  0.98321971    -0.33500
S232        S  0.36770968  0.29165997  0.02031053    -0.33500
H233        H  0.36485342  0.25558523  0.01874273     0.27900
H234        H  0.20691970  0.34691398  0.00046084     0.27900
H235        H  0.26220194  0.27866766  0.94511766     0.18500
H236        H  0.31661305  0.33033247  0.05663147     0.18500
C237        C  0.33435832  0.14951738  0.79936026    -0.07300
C238        C  0.36005470  0.15876785  0.77448161    -0.18500
C239        C  0.35599979  0.15530088  0.73565512     0.09900
C240        C  0.32515691  0.14288067  0.72147014    -0.07300
C241        C  0.30035089  0.13164387  0.74679592    -0.18500
C242        C  0.30453556  0.13515080  0.78562401     0.09900
S243        S  0.38941232  0.17099756  0.70616736    -0.33500
S244        S  0.27050585  0.12460075  0.81711822    -0.33500
H245        H  0.24711037  0.11511951  0.78933587     0.27900
H246        H  0.39447631  0.13925565  0.68818201     0.27900
H247        H  0.38270814  0.17046959  0.78531559     0.18500
H248        H  0.27698950  0.12145652  0.73600952     0.18500
C249        C  0.20260464  0.10184412  0.89535649    -0.07300
C250        C  0.23335477  0.08386488  0.89685109    -0.18500
C251        C  0.26221570  0.09901555  0.91205668     0.09900
C252        C  0.26102799  0.13375566  0.92392521    -0.07300
C253        C  0.22990573  0.15036740  0.92618704    -0.18500
C254        C  0.20051981  0.13465270  0.91344753     0.09900
S255        S  0.30041340  0.07386689  0.91200853    -0.33500
S256        S  0.16162045  0.15865436  0.91948565    -0.33500
H257        H  0.17343843  0.18189022  0.94665021     0.27900
H258        H  0.31006970  0.08418648  0.94834563     0.27900
H259        H  0.23526482  0.05818971  0.88513451     0.18500
H260        H  0.22900570  0.17684971  0.93577295     0.18500
C261        C  0.45564067  0.15183220  0.87092258    -0.07300
C262        C  0.45022080  0.12263605  0.84800517    -0.18500
C263        C  0.47674789  0.10456766  0.83156034     0.09900
C264        C  0.01046743  0.11761331  0.83700961    -0.07300
C265        C  0.01544220  0.15077323  0.85179233    -0.18500
C266        C  0.48855506  0.16512169  0.87316292     0.09900
S267        S  0.46736361  0.06570310  0.80613359    -0.33500
S268        S  0.99999411  0.20775638  0.89390419    -0.33500
H269        H  0.48633840  0.18786337  0.93430425     0.27900
H270        H  0.99767879  0.06169441  0.79200574     0.27900
H271        H  0.42516677  0.11254702  0.84402599     0.18500
H272        H  0.04067166  0.16096480  0.85339604     0.18500
C273        C  0.45822125  0.07097280  0.23022362    -0.07300
C274        C  0.45726170  0.03489145  0.22571996    -0.18500
C275        C  0.43646038  0.01397780  0.24766445     0.09900
C276        C  0.41646017  0.02873671  0.27609058    -0.07300
C277        C  0.41606924  0.06470510  0.28003145    -0.18500
C278        C  0.43617817  0.08597771  0.25714201     0.09900
S279        S  0.42839947  0.47111922  0.23661617    -0.33500
S280        S  0.43309596  0.13170011  0.26479251    -0.33500
H281        H  0.42310878  0.13870641  0.22740797     0.27900
H282        H  0.39575455  0.46591692  0.25055123     0.27900
H283        H  0.47278600  0.02250949  0.20463868     0.18500
H284        H  0.40085571  0.07624439  0.30197437     0.18500
C285        C  0.40471919  0.16703796  0.02396931    -0.07300
C286        C  0.42416439  0.19314874  0.04049151    -0.18500
C287        C  0.44409421  0.18707687  0.07235018     0.09900
C288        C  0.44398937  0.15423722  0.08999539    -0.07300
C289        C  0.42304469  0.12859270  0.07479739    -0.18500
C290        C  0.40348211  0.13458511  0.04232926     0.09900
S291        S  0.99447056  0.20719830  0.06971794    -0.33500
S292        S  0.37765658  0.09974818  0.02607130    -0.33500
H293        H  0.35010265  0.12113730  0.01656560     0.27900
H294        H  0.01601000  0.17863848  0.07546853     0.27900
H295        H  0.42577158  0.21826558  0.02709797     0.18500
H296        H  0.42226328  0.10330629  0.08789455     0.18500
C297        C  0.07897752  0.23407924  0.13136779    -0.07300
C298        C  0.09380975  0.23476601  0.09526491    -0.18500
C299        C  0.11513812  0.26148887  0.08398880     0.09900
C300        C  0.12174829  0.28838248  0.10916785    -0.07300
C301        C  0.10524998  0.28904739  0.14415694    -0.18500
C302        C  0.08413374  0.26212437  0.15570684     0.09900
S303        S  0.13527453  0.25826885  0.03867719    -0.33500
S304        S  0.06740569  0.26199595  0.20301632    -0.33500
H305        H  0.08084237  0.29376612  0.21424369     0.27900
H306        H  0.14092272  0.29371066  0.03354258     0.27900
H307        H  0.09027127  0.21321040  0.07643692     0.18500
H308        H  0.11050628  0.30986589  0.16338789     0.18500
C309        C  0.15964614  0.48557823  0.12885682    -0.07300
C310        C  0.13572634  0.49641807  0.10246454    -0.18500
C311        C  0.11390121  0.02011031  0.11220377     0.09900
C312        C  0.10980618  0.03271603  0.14939530    -0.07300
C313        C  0.13204869  0.02108778  0.17772149    -0.18500
C314        C  0.15951734  0.50010848  0.16516917     0.09900
S315        S  0.08570395  0.03184799  0.07408786    -0.33500
S316        S  0.18910789  0.48673730  0.20111610    -0.33500
H317        H  0.21301305  0.47228352  0.17659908     0.27900
H318        H  0.09856514  0.00933862  0.04667506     0.27900
H319        H  0.13522178  0.48403618  0.07518940     0.18500
H320        H  0.12941150  0.03068788  0.20612186     0.18500
C321        C  0.07587078  0.10494849  0.96134889    -0.07300
C322        C  0.10403849  0.10986821  0.98432531    -0.18500
C323        C  0.10064321  0.11450601  0.02332027     0.09900
C324        C  0.06806132  0.11356469  0.03951159    -0.07300
C325        C  0.03994612  0.11125879  0.01550876    -0.18500
C326        C  0.04349111  0.10664633  0.97697261     0.09900
S327        S  0.13826928  0.11934528  0.05141636    -0.33500
S328        S  0.00573505  0.10009270  0.94985802    -0.33500
H329        H  0.01915574  0.11277542  0.91623946     0.27900
H330        H  0.16112136  0.12185020  0.02135058     0.27900
H331        H  0.12885647  0.10769309  0.97196850     0.18500
H332        H  0.01466319  0.11147944  0.02691324     0.18500
C333        C  0.17367024  0.21245613  0.48073703    -0.07300
C334        C  0.20918069  0.21372978  0.47957891    -0.18500
C335        C  0.22951346  0.19173646  0.50123960     0.09900
C336        C  0.21476189  0.16778869  0.52599250    -0.07300
C337        C  0.17956018  0.16474009  0.52618310    -0.18500
C338        C  0.15889675  0.18665066  0.50388488     0.09900
S339        S  0.27451988  0.19573281  0.49623147    -0.33500
S340        S  0.11424630  0.18032391  0.50698000    -0.33500
H341        H  0.10695745  0.21524532  0.51298555     0.27900
H342        H  0.28231122  0.16124433  0.50560927     0.27900
H343        H  0.22173006  0.23206129  0.46145749     0.18500
H344        H  0.16801724  0.14648870  0.54525351     0.18500
C345        C  0.10522230  0.20800976  0.33270689    -0.07300
C346        C  0.07614809  0.18772086  0.33467667    -0.18500
C347        C  0.06559495  0.16769910  0.30410916     0.09900
C348        C  0.08373717  0.16869639  0.26982324    -0.07300
C349        C  0.11368526  0.18760726  0.26853435    -0.18500
C350        C  0.12466485  0.20694183  0.29933016     0.09900
S351        S  0.02875319  0.14158057  0.31076837    -0.33500
S352        S  0.16150368  0.23280933  0.29231517    -0.33500
H353        H  0.17945130  0.21642869  0.32170197     0.27900
H354        H  0.03957108  0.11485382  0.28696931     0.27900
H355        H  0.06126524  0.18769586  0.36023526     0.18500
H356        H  0.12780305  0.18905486  0.24247404     0.18500
C357        C  0.02419072  0.34225163  0.36748738    -0.07300
C358        C  0.02912667  0.37412654  0.34852167    -0.18500
C359        C  0.49971047  0.39744130  0.33715212     0.09900
C360        C  0.46729328  0.38354411  0.33873956    -0.07300
C361        C  0.46354639  0.34884244  0.34990088    -0.18500
C362        C  0.49093876  0.32944551  0.36418166     0.09900
S363        S  0.50769909  0.44070403  0.32047370    -0.33500
S364        S  0.98178748  0.28721902  0.38821971    -0.33500
H365        H  0.99282889  0.29665780  0.42436560     0.27900
H366        H  0.47892477  0.44324342  0.29747386     0.27900
H367        H  0.05402995  0.38489550  0.34573797     0.18500
H368        H  0.43858144  0.33790240  0.35125913     0.18500
C369        C  0.21596245  0.36919580  0.42390875    -0.07300
C370        C  0.24788211  0.35668684  0.43342566    -0.18500
C371        C  0.27675611  0.37473204  0.42336250     0.09900
C372        C  0.27401963  0.40484717  0.40026511    -0.07300
C373        C  0.24196295  0.41899275  0.39376273    -0.18500
C374        C  0.21291339  0.40180095  0.40583991     0.09900
S375        S  0.31602830  0.35744652  0.44102040    -0.33500
S376        S  0.17228871  0.42056998  0.39505560    -0.33500
H377        H  0.18375210  0.44889930  0.37387253     0.27900
H378        H  0.32913549  0.39016855  0.44892831     0.27900
H379        H  0.25035442  0.33206980  0.44791751     0.18500
H380        H  0.23958123  0.44258109  0.37744285     0.18500
C381        C  0.16815053  0.35717623  0.22454616    -0.07300
C382        C  0.19366196  0.34277495  0.24743601    -0.18500
C383        C  0.18843806  0.33639957  0.28555132     0.09900
C384        C  0.15698591  0.34424344  0.30130997    -0.07300
C385        C  0.13229513  0.36113162  0.27976574    -0.18500
C386        C  0.13774557  0.36827984  0.24159022     0.09900
S387        S  0.22220258  0.31845891  0.31402857    -0.33500
S388        S  0.10521886  0.39186712  0.21686509    -0.33500
H389        H  0.12787854  0.41509131  0.20026300     0.27900
H390        H  0.24368829  0.30976440  0.28413311     0.27900
H391        H  0.21765405  0.33562952  0.23540313     0.18500
H392        H  0.10841835  0.36790233  0.29246517     0.18500
C393        C  0.02540960  0.42532426  0.73615772    -0.07300
C394        C  0.01315971  0.43046377  0.77255266    -0.18500
C395        C  0.03161262  0.44900342  0.79907449     0.09900
C396        C  0.06266793  0.46416144  0.78877661    -0.07300
C397        C  0.07596397  0.45698523  0.75307899    -0.18500
C398        C  0.05755571  0.43794678  0.72664285     0.09900
S399        S  0.01441740  0.45162368  0.84593317    -0.33500
S400        S  0.07577744  0.43144732  0.68085633    -0.33500
H401        H  0.04600439  0.43896775  0.66096669     0.27900
H402        H  0.04587850  0.45013224  0.86410628     0.27900
H403        H  0.49838465  0.40603917  0.77975692     0.18500
H404        H  0.09990369  0.46777889  0.74500020     0.18500
C405        C  0.39942917  0.40903720  0.46545316    -0.07300
C406        C  0.38092640  0.42840333  0.49146027    -0.18500
C407        C  0.38659936  0.42468999  0.52989710     0.09900
C408        C  0.41061239  0.40038461  0.54253783    -0.07300
C409        C  0.42794749  0.37974250  0.51669883    -0.18500
C410        C  0.42284317  0.38408500  0.47811133     0.09900
S411        S  0.36460610  0.45367184  0.56085216    -0.33500
S412        S  0.44885161  0.35937736  0.44673038    -0.33500
H413        H  0.45596393  0.38732938  0.42268131     0.27900
H414        H  0.39198638  0.45900072  0.58516117     0.27900
H415        H  0.36315446  0.44789527  0.48159067     0.18500
H416        H  0.44659307  0.36117641  0.52665346     0.18500
C417        C  0.33571405  0.02189460  0.65118759    -0.07300
C418        C  0.32372570  0.98880390  0.64360087    -0.18500
C419        C  0.34125701  0.46104020  0.65583321     0.09900
C420        C  0.37437242  0.46443901  0.67022914    -0.07300
C421        C  0.38574315  0.49717043  0.67981330    -0.18500
C422        C  0.36498940  0.02492682  0.67405027     0.09900
S423        S  0.32378725  0.41921190  0.64603854    -0.33500
S424        S  0.37892878  0.06493797  0.69387869    -0.33500
H425        H  0.34599376  0.07649833  0.70096463     0.27900
H426        H  0.29109230  0.43079244  0.63711082     0.27900
H427        H  0.30092695  0.98610544  0.62721014     0.18500
H428        H  0.41045356  0.49992425  0.69234693     0.18500
C429        C  0.35731745  0.21964534  0.60939148    -0.07300
C430        C  0.38392951  0.22641042  0.58434095    -0.18500
C431        C  0.40874970  0.25083299  0.59305915     0.09900
C432        C  0.40829616  0.26698897  0.62855907    -0.07300
C433        C  0.38306017  0.25878404  0.65416155    -0.18500
C434        C  0.35698806  0.23688531  0.64463672     0.09900
S435        S  0.43959568  0.26114306  0.55768061    -0.33500
S436        S  0.32398364  0.23335235  0.67915422    -0.33500
H437        H  0.29934083  0.24674539  0.65439880     0.27900
H438        H  0.46301867  0.27625299  0.58214273     0.27900
H439        H  0.38492858  0.21327003  0.55746788     0.18500
H440        H  0.38189953  0.27220594  0.68094437     0.18500
C441        C  0.03649436  0.35594731  0.58578667    -0.07300
C442        C  0.05340644  0.32399288  0.58494525    -0.18500
C443        C  0.07234309  0.31373022  0.55358348     0.09900
C444        C  0.07323850  0.33493012  0.52093359    -0.07300
C445        C  0.05747958  0.36744459  0.52235235    -0.18500
C446        C  0.03978450  0.37838367  0.55422273     0.09900
S447        S  0.09561402  0.27389993  0.55779784    -0.33500
S448        S  0.02010579  0.42028740  0.55113301    -0.33500
H449        H  0.54635489  0.43097037  0.58666599     0.27900
H450        H  0.12306687  0.28503209  0.53607967     0.27900
H451        H  0.05201368  0.30676843  0.60913766     0.18500
H452        H  0.05798299  0.38430561  0.49779973     0.18500
C453        C  0.40957339  0.31882784  0.76275110    -0.07300
C454        C  0.42934762  0.29194429  0.77766859    -0.18500
C455        C  0.41828977  0.27178287  0.80782104     0.09900
C456        C  0.38719873  0.27956721  0.82548314    -0.07300
C457        C  0.36738330  0.30667773  0.81068519    -0.18500
C458        C  0.37820725  0.32632706  0.77962931     0.09900
S459        S  0.44398972  0.23471452  0.81974210    -0.33500
S460        S  0.35143261  0.36120107  0.76363747    -0.33500
H461        H  0.37798011  0.38316757  0.75367689     0.27900
H462        H  0.41664796  0.21212985  0.82312077     0.27900
H463        H  0.45291797  0.28515790  0.76420946     0.18500
H464        H  0.34348832  0.31294235  0.82369080     0.18500
O465        O  0.41208994  0.82652389  0.62655826    -0.83000
C466        C  0.00199320  0.90844930  0.71037991     0.96300
O467        O  0.00458501  0.87637019  0.70403040    -0.72100
O468        O  0.45257342  0.84125282  0.72612794    -0.75700
Al469      Al  0.47571899  0.84080425  0.67967627     1.49000
C470        C  0.42153814  0.83531889  0.72960917     0.91600
O471        O  0.39269332  0.90557495  0.68280885    -0.81900
O472        O  0.45071545  0.90371357  0.59367928    -0.75500
Al473      Al  0.40506134  0.86588010  0.65567366     1.90100
O474        O  0.42748164  0.94039579  0.65389826    -0.74600
O475        O  0.00678652  0.89497905  0.62892817    -0.74400
O476        O  0.48456877  0.92384474  0.68976747    -0.80100
O477        O  0.99882836  0.83969778  0.63692868    -0.78300
O478        O  0.44893938  0.87319073  0.65985718    -1.14400
O479        O  0.44962011  0.80145433  0.66277327    -0.73600
C480        C  0.42614647  0.79972355  0.63871424     0.97100
C481        C  0.39987895  0.93517461  0.67072127     0.93500
Al482      Al  0.46633925  0.91205345  0.64246567     1.55600
O483        O  0.40142725  0.84043594  0.70236832    -0.78200
C484        C  0.01333062  0.86413240  0.61987548     0.97700
C485        C  0.42078034  0.89797690  0.58458910     0.92500
O486        O  0.39917307  0.88914316  0.60852815    -0.83600
O487        O  0.07920940  0.84868894  0.39050138    -0.83000
C488        C  0.15534021  0.73988025  0.45517165     0.96300
O489        O  0.12342422  0.73960541  0.45046511    -0.72100
O490        O  0.08782364  0.79358020  0.47666769    -0.75700
Al491      Al  0.09134360  0.77362783  0.42796374     1.49000
C492        C  0.08833833  0.82475835  0.48651210     0.91600
O493        O  0.16101173  0.85513383  0.44060177    -0.81900
O494        O  0.15232742  0.80468843  0.34603707    -0.75500
Al495      Al  0.11955240  0.84776302  0.41550024     1.90100
O496        O  0.19093373  0.82106624  0.40536662    -0.74600
O497        O  0.14226903  0.74258667  0.37232356    -0.74400
O498        O  0.17280013  0.76201168  0.43793278    -0.80100
O499        O  0.08880258  0.75016264  0.38129808    -0.78300
O500        O  0.12393171  0.80195308  0.41253425    -1.14400
O501        O  0.05389099  0.80171519  0.40775301    -0.73600
C502        C  0.05351183  0.83048521  0.39041694     0.97100
C503        C  0.18845555  0.84781703  0.42509480     0.93500
Al504      Al  0.16127288  0.78407960  0.39263725     1.55600
O505        O  0.09864779  0.84765272  0.46391218    -0.78200
C506        C  0.11233565  0.73609239  0.36346009     0.97700
C507        C  0.14715803  0.83638651  0.34046610     0.92500
O508        O  0.13856409  0.85643013  0.36670939    -0.83600
O509        O  0.08020812  0.67525468  0.13636066    -0.83000
C510        C  0.47913019  0.59204295  0.20771653     0.96300
O511        O  0.47866241  0.62490105  0.20583297    -0.72100
O512        O  0.03667986  0.65690202  0.22963658    -0.75700
Al513      Al  0.01254621  0.65931753  0.18334703     1.49000
C514        C  0.06817468  0.65777839  0.23432823     0.91600
O515        O  0.09207554  0.58685142  0.17758205    -0.81900
O516        O  0.03158905  0.60561975  0.09219083    -0.75500
Al517      Al  0.08237442  0.63163641  0.15768105     1.90100
O518        O  0.05536833  0.56026291  0.14335034    -0.74600
O519        O  0.46945102  0.61397677  0.13116556    -0.74400
O520        O  0.49864098  0.57498944  0.18656417    -0.80100
O521        O  0.48203850  0.66756829  0.14125095    -0.78300
O522        O  0.03793395  0.62747793  0.16110395    -1.14400
O523        O  0.03853549  0.69904181  0.16682194    -0.73600
C524        C  0.06386874  0.70150491  0.14545683     0.97100
C525        C  0.08393654  0.56093942  0.15856936     0.93500
Al526      Al  0.01795744  0.59135023  0.14024961     1.55600
O527        O  0.08793254  0.64974075  0.20774112    -0.78200
C528        C  0.46548391  0.64544073  0.12333983     0.97700
C529        C  0.06136288  0.61178603  0.08202699     0.92500
O530        O  0.08441089  0.61627772  0.10620432    -0.83600
O531        O  0.40106315  0.64805024  0.89085540    -0.83000
C532        C  0.32723217  0.75831280  0.95128267     0.96300
O533        O  0.35907311  0.75866282  0.94691263    -0.72100
O534        O  0.38952221  0.70519192  0.97590664    -0.75700
Al535      Al  0.39033100  0.72348193  0.92746906     1.49000
C536        C  0.39060616  0.67439944  0.98678464     0.91600
O537        O  0.31855853  0.64636505  0.94012122    -0.81900
O538        O  0.33355398  0.69411012  0.84279199    -0.75500
Al539      Al  0.36053010  0.65053533  0.91550599     1.90100
O540        O  0.29136814  0.67972755  0.90040826    -0.74600
O541        O  0.34428782  0.75599842  0.86740743    -0.74400
O542        O  0.30939029  0.73831434  0.93184511    -0.80100
O543        O  0.39642911  0.74499413  0.88089782    -0.78300
O544        O  0.35784658  0.69640632  0.91078930    -1.14400
O545        O  0.42713289  0.69364122  0.91092917    -0.73600
C546        C  0.42705258  0.66586549  0.89225308     0.97100
C547        C  0.29192660  0.65429249  0.92285125     0.93500
Al548      Al  0.32246232  0.71552073  0.88784844     1.55600
O549        O  0.38186118  0.65038227  0.96491007    -0.78200
C550        C  0.37509023  0.75912012  0.85991440     0.97700
C551        C  0.33704607  0.66213026  0.83835709     0.92500
O552        O  0.34123179  0.64165301  0.86610739    -0.83600
O553        O  0.14607081  0.60229779  0.87876698    -0.83000
C554        C  0.07866313  0.98903109  0.81573323     0.96300
O555        O  0.11064609  0.99112444  0.81852167    -0.72100
O556        O  0.14073645  0.54808021  0.78973057    -0.75700
Al557      Al  0.13993611  0.52810326  0.83826367     1.49000
C558        C  0.14084442  0.57943356  0.78052167     0.91600
O559        O  0.06709456  0.60339827  0.82289962    -0.81900
O560        O  0.07802095  0.55535836  0.92093798    -0.75500
Al561      Al  0.10720393  0.59991827  0.85087233     1.90100
O562        O  0.03848005  0.56941768  0.86010574    -0.74600
O563        O  0.09346569  0.99562313  0.89928377    -0.74400
O564        O  0.05982006  0.00965039  0.83324503    -0.80100
O565        O  0.14557740  0.00567765  0.88584011    -0.78300
O566        O  0.10578691  0.55399150  0.85410235    -1.14400
O567        O  0.17508919  0.55868264  0.85761992    -0.73600
C568        C  0.17315971  0.58603848  0.87716163     0.97100
C569        C  0.03991713  0.59525352  0.83831203     0.93500
Al570      Al  0.06997399  0.53403298  0.87469491     1.55600
O571        O  0.13099679  0.60195978  0.80367572    -0.78200
C572        C  0.12426124  0.99164129  0.90657500     0.97700
C573        C  0.07981473  0.58741386  0.92567137     0.92500
O574        O  0.08475234  0.60794246  0.89837853    -0.83600
O575        O  0.33853672  0.58017183  0.62781685    -0.83000
C576        C  0.23494998  0.65335344  0.55642995     0.96300
O577        O  0.23382529  0.62085063  0.56344364    -0.72100
O578        O  0.28804819  0.58318911  0.54641816    -0.75700
Al579      Al  0.26462672  0.58979931  0.59224038     1.49000
C580        C  0.31747389  0.58934886  0.53526503     0.91600
O581        O  0.34049552  0.66787462  0.58350010    -0.81900
O582        O  0.28524190  0.65206948  0.67306164    -0.75500
Al583      Al  0.33481372  0.62349078  0.60587838     1.90100
O584        O  0.30469808  0.69410203  0.61850714    -0.74600
O585        O  0.22683008  0.64372041  0.63816667    -0.74400
O586        O  0.25279180  0.67337201  0.57618556    -0.80100
O587        O  0.23775275  0.58931030  0.63688222    -0.78300
O588        O  0.28987942  0.62488562  0.60689095    -1.14400
O589        O  0.29099270  0.55423429  0.61817249    -0.73600
C590        C  0.32036328  0.55436383  0.63210805     0.97100
C591        C  0.33233716  0.69402560  0.60196288     0.93500
Al592      Al  0.26929096  0.66247899  0.62439885     1.55600
O593        O  0.33795097  0.60510449  0.55614550    -0.78200
C594        C  0.22111068  0.61398023  0.65019407     0.97700
C595        C  0.31572234  0.64600248  0.68177828     0.92500
O596        O  0.33803307  0.64046446  0.65683553    -0.83600
O597        O  0.33172129  0.90195763  0.38267711    -0.83000
C598        C  0.39722728  0.50897155  0.30649392     0.96300
O599        O  0.36571055  0.50966737  0.31346421    -0.72100
O600        O  0.33732118  0.95226756  0.29125963    -0.75700
Al601      Al  0.34037179  0.97449208  0.33823533     1.49000
C602        C  0.33759514  0.92051946  0.28389380     0.91600
O603        O  0.41147111  0.89441314  0.32849863    -0.81900
O604        O  0.40422048  0.95079121  0.41928417    -0.75500
Al605      Al  0.37127931  0.90204659  0.35536630     1.90100
O606        O  0.44172770  0.93062699  0.36034633    -0.74600
O607        O  0.38780559  0.51161222  0.38950057    -0.74400
O608        O  0.41711412  0.48935273  0.32452272    -0.80100
O609        O  0.33485505  0.50041449  0.38493958    -0.78300
O610        O  0.37426192  0.94796020  0.35442056    -1.14400
O611        O  0.30474354  0.94673314  0.36032393    -0.73600
C612        C  0.30557753  0.91991792  0.38101063     0.97100
C613        C  0.43933418  0.90320187  0.34172397     0.93500
Al614      Al  0.41149275  0.96796400  0.37122264     1.55600
O615        O  0.34834721  0.89887126  0.30795454    -0.78200
C616        C  0.35817868  0.51651531  0.40060715     0.97700
C617        C  0.39961493  0.91973424  0.42829004     0.92500
O618        O  0.39291816  0.89709016  0.40385480    -0.83600
O619        O  0.15986666  0.92445412  0.13640031    -0.83000
C620        C  0.25126115  0.83956842  0.05905944     0.96300
O621        O  0.25513444  0.87171896  0.06441953    -0.72100
O622        O  0.20113130  0.90554447  0.03965982    -0.75700
Al623      Al  0.22471271  0.90617279  0.08591490     1.49000
C624        C  0.17000043  0.91123322  0.03559860     0.91600
O625        O  0.14220399  0.84123041  0.08724889    -0.81900
O626        O  0.20222255  0.85006148  0.17523527    -0.75500
Al627      Al  0.15403819  0.88307602  0.11099697     1.90100
O628        O  0.17611628  0.80898398  0.12119485    -0.74600
O629        O  0.25912000  0.85563188  0.13916056    -0.74400
O630        O  0.23076619  0.82231529  0.07875257    -0.80100
O631        O  0.25048660  0.91072354  0.13079667    -0.78300
O632        O  0.19790278  0.87537751  0.10721353    -1.14400
O633        O  0.19964321  0.94670865  0.10172926    -0.73600
C634        C  0.17561742  0.95008629  0.12471785     0.97100
C635        C  0.14862017  0.81309950  0.10376919     0.93500
Al636      Al  0.21562897  0.83706146  0.12666772     1.55600
O637        O  0.14970812  0.90560395  0.06239215    -0.78200
C638        C  0.26590218  0.88645535  0.14739402     0.97700
C639        C  0.17268541  0.85795832  0.18515805     0.92500
O640        O  0.15013657  0.86365316  0.16066109    -0.83600
C641        C  0.32389704  0.90914560  0.24689474    -0.07300
C642        C  0.32112011  0.93373752  0.21763303    -0.18500
C643        C  0.30492441  0.92628281  0.18360177     0.09900
C644        C  0.29002655  0.89366212  0.17849380    -0.07300
C645        C  0.29501459  0.86821892  0.20649346    -0.18500
C646        C  0.31158249  0.87550470  0.24039733     0.09900
S647        S  0.30458823  0.95955970  0.14786545    -0.33500
S648        S  0.31416840  0.84106981  0.27467730    -0.33500
H649        H  0.29910751  0.86055842  0.30345583     0.27900
H650        H  0.30834097  0.93653792  0.11767115     0.27900
H651        H  0.33140890  0.95919328  0.22131513     0.18500
H652        H  0.28418232  0.84298197  0.20305817     0.18500
C653        C  0.32865147  0.57587637  0.49807871    -0.07300
C654        C  0.36234919  0.56546572  0.49380602    -0.18500
C655        C  0.37339257  0.54814838  0.46148156     0.09900
C656        C  0.35018676  0.54027185  0.43242905    -0.07300
C657        C  0.31690970  0.55245857  0.43589789    -0.18500
C658        C  0.30597430  0.57031511  0.46798986     0.09900
S659        S  0.41679604  0.53466595  0.46073487    -0.33500
S660        S  0.26310102  0.58621411  0.46970241    -0.33500
H661        H  0.25280606  0.57409741  0.43429297     0.27900
H662        H  0.42339289  0.55216154  0.42669824     0.27900
H663        H  0.38007428  0.56963119  0.51651618     0.18500
H664        H  0.29912108  0.54732814  0.41356856     0.18500
C665        C  0.15817924  0.92873080  0.00066319    -0.07300
C666        C  0.17809614  0.95558163  0.98673248    -0.18500
C667        C  0.16706935  0.97703010  0.95740834     0.09900
C668        C  0.13583130  0.97069389  0.93950987    -0.07300
C669        C  0.11581475  0.94366159  0.95331129    -0.18500
C670        C  0.12663759  0.92267677  0.98359115     0.09900
S671        S  0.18034770  0.52178908  0.95495744    -0.33500
S672        S  0.09968267  0.88801648  0.99831057    -0.33500
H673        H  0.12599050  0.86536993  0.00873781     0.27900
H674        H  0.15055659  0.53972365  0.94562892     0.27900
H675        H  0.20179231  0.96134566  0.00040974     0.18500
H676        H  0.09180807  0.93846402  0.94006592     0.18500
C677        C  0.15523887  0.58992492  0.74338892    -0.07300
C678        C  0.16798763  0.62343149  0.73926322    -0.18500
C679        C  0.18745092  0.63286214  0.70799434     0.09900
C680        C  0.19564470  0.60795607  0.68028493    -0.07300
C681        C  0.18114133  0.57518486  0.68326986    -0.18500
C682        C  0.16043100  0.56628365  0.71363800     0.09900
S683        S  0.20309090  0.67629786  0.70713655    -0.33500
S684        S  0.14129316  0.52436833  0.71219592    -0.33500
H685        H  0.11070976  0.53546081  0.72810077     0.27900
H686        H  0.18796374  0.68405691  0.67215361     0.27900
H687        H  0.16398618  0.64214611  0.76128977     0.18500
H688        H  0.18606526  0.55618094  0.66177903     0.18500
C689        C  0.30946328  0.78150785  0.97851292    -0.07300
C690        C  0.27430120  0.78533613  0.97455138    -0.18500
C691        C  0.25513108  0.80496616  0.99958793     0.09900
C692        C  0.27102574  0.82179453  0.02969344    -0.07300
C693        C  0.30613364  0.81925705  0.03333500    -0.18500
C694        C  0.32540333  0.79888024  0.00866169     0.09900
S695        S  0.21032963  0.80744254  0.99152363    -0.33500
S696        S  0.36954450  0.79433146  0.01899474    -0.33500
H697        H  0.36864796  0.75808221  0.01880961     0.27900
H698        H  0.20545218  0.84036177  0.00695811     0.27900
H699        H  0.26125841  0.77273947  0.95168356     0.18500
H700        H  0.31842898  0.83180552  0.05676461     0.18500
C701        C  0.33519307  0.64954354  0.79987398    -0.07300
C702        C  0.36014295  0.66034697  0.77477846    -0.18500
C703        C  0.35552025  0.65787334  0.73594409     0.09900
C704        C  0.32482086  0.64501639  0.72194007    -0.07300
C705        C  0.30073679  0.63234969  0.74729883    -0.18500
C706        C  0.30562127  0.63455251  0.78618899     0.09900
S707        S  0.38798644  0.67518926  0.70625038    -0.33500
S708        S  0.27273528  0.62138183  0.81797566    -0.33500
H709        H  0.25017698  0.60955598  0.79043832     0.27900
H710        H  0.39417965  0.64365452  0.68820423     0.27900
H711        H  0.38259731  0.67245019  0.78550271     0.18500
H712        H  0.27748673  0.62189065  0.73654960     0.18500
C713        C  0.20262158  0.60071325  0.89761480    -0.07300
C714        C  0.23340371  0.58276566  0.89761422    -0.18500
C715        C  0.26276710  0.59778274  0.91172224     0.09900
C716        C  0.26189313  0.63225478  0.92450434    -0.07300
C717        C  0.23086660  0.64883216  0.92813760    -0.18500
C718        C  0.20110009  0.63337607  0.91608481     0.09900
S719        S  0.30112255  0.57307632  0.90857991    -0.33500
S720        S  0.16236674  0.65742856  0.92336409    -0.33500
H721        H  0.17546203  0.68334557  0.94657109     0.27900
H722        H  0.31227216  0.58221953  0.94475767     0.27900
H723        H  0.23494807  0.55724309  0.88533335     0.18500
H724        H  0.23033955  0.67515624  0.93833129     0.18500
C725        C  0.45671467  0.65248760  0.87106731    -0.07300
C726        C  0.45121628  0.62487426  0.84593467    -0.18500
C727        C  0.47781980  0.60715687  0.82905124     0.09900
C728        C  0.01171990  0.61968985  0.83845122    -0.07300
C729        C  0.01654726  0.65045750  0.85837592    -0.18500
C730        C  0.48982288  0.66489720  0.87508693     0.09900
S731        S  0.46840203  0.57100262  0.79928671    -0.33500
S732        S  0.99925990  0.70348352  0.90530886    -0.33500
H733        H  0.48604631  0.68577444  0.93699188     0.27900
H734        H  0.00182587  0.57047304  0.78415699     0.27900
H735        H  0.42597566  0.61590826  0.84033693     0.18500
H736        H  0.04184516  0.65883219  0.86464919     0.18500
C737        C  0.45532877  0.57255617  0.23242828    -0.07300
C738        C  0.45159303  0.53700577  0.22566781    -0.18500
C739        C  0.43038219  0.51648571  0.24748563     0.09900
C740        C  0.41221654  0.53125177  0.27736988    -0.07300
C741        C  0.41487743  0.56675191  0.28387488    -0.18500
C742        C  0.43596089  0.58757407  0.26170518     0.09900
S743        S  0.43650960  0.96834018  0.23801291    -0.33500
S744        S  0.43861314  0.63235882  0.27409127    -0.33500
H745        H  0.42576210  0.64369574  0.23910403     0.27900
H746        H  0.40364334  0.96218626  0.25080663     0.27900
H747        H  0.46544090  0.52472432  0.20313825     0.18500
H748        H  0.40169231  0.57803283  0.30751800     0.18500
C749        C  0.40585401  0.66764931  0.02436994    -0.07300
C750        C  0.43154144  0.69010765  0.03563034    -0.18500
C751        C  0.45064334  0.68402591  0.06798592     0.09900
C752        C  0.44332835  0.65541506  0.09132318    -0.07300
C753        C  0.41669797  0.63357546  0.08100705    -0.18500
C754        C  0.39785591  0.63944542  0.04795489     0.09900
S755        S  0.99019624  0.70956193  0.07112960    -0.33500
S756        S  0.36388484  0.61048990  0.03781756    -0.33500
H757        H  0.34289748  0.63580173  0.02127031     0.27900
H758        H  0.01339709  0.68223261  0.07592510     0.27900
H759        H  0.43844592  0.71163729  0.01768210     0.18500
H760        H  0.41079495  0.61147903  0.09855430     0.18500
C761        C  0.07725413  0.73483723  0.13184312    -0.07300
C762        C  0.09148310  0.73567578  0.09546555    -0.18500
C763        C  0.11361994  0.76176755  0.08436678     0.09900
C764        C  0.12163487  0.78787793  0.11004009    -0.07300
C765        C  0.10579387  0.78835630  0.14541919    -0.18500
C766        C  0.08385523  0.76209868  0.15673943     0.09900
S767        S  0.13321117  0.75832709  0.03879570    -0.33500
S768        S  0.06779869  0.76162892  0.20434956    -0.33500
H769        H  0.08544985  0.79049911  0.21733609     0.27900
H770        H  0.14025655  0.79353135  0.03418208     0.27900
H771        H  0.08698104  0.71453562  0.07634302     0.18500
H772        H  0.11212800  0.80845479  0.16507958     0.18500
C773        C  0.16057821  0.98373369  0.13294814    -0.07300
C774        C  0.14003226  0.99703305  0.10435285    -0.18500
C775        C  0.11000365  0.51937445  0.11204974     0.09900
C776        C  0.10928060  0.53402444  0.14870348    -0.07300
C777        C  0.13496831  0.52496369  0.17438463    -0.18500
C778        C  0.15658155  0.99578893  0.17011011     0.09900
S779        S  0.07774505  0.52752072  0.07696560    -0.33500
S780        S  0.18089034  0.97855126  0.20900296    -0.33500
H781        H  0.20713456  0.96467232  0.18721396     0.27900
H782        H  0.09554908  0.51508894  0.04559622     0.27900
H783        H  0.14251807  0.98666116  0.07624529     0.18500
H784        H  0.13519410  0.53632523  0.20217430     0.18500
C785        C  0.07606697  0.60043204  0.96376893    -0.07300
C786        C  0.10410468  0.59871352  0.98759099    -0.18500
C787        C  0.10091726  0.60396269  0.02639811     0.09900
C788        C  0.06874884  0.61188368  0.04127577    -0.07300
C789        C  0.04138693  0.61644569  0.01648862    -0.18500
C790        C  0.04447203  0.60980898  0.97821714     0.09900
S791        S  0.13753291  0.59762215  0.05611302    -0.33500
S792        S  0.00677068  0.61155559  0.94997897    -0.33500
H793        H  0.01420672  0.58226798  0.92848410     0.27900
H794        H  0.15979196  0.58662338  0.02782807     0.27900
H795        H  0.12829771  0.59149542  0.97583147     0.18500
H796        H  0.01668009  0.62314697  0.02732891     0.18500
C797        C  0.17414882  0.71407116  0.47958449    -0.07300
C798        C  0.20962006  0.71610291  0.47973447    -0.18500
C799        C  0.22981974  0.69405024  0.50153792     0.09900
C800        C  0.21492269  0.66946472  0.52548041    -0.07300
C801        C  0.17986475  0.66536098  0.52390825    -0.18500
C802        C  0.15938637  0.68711306  0.50117759     0.09900
S803        S  0.27484808  0.69864742  0.49764406    -0.33500
S804        S  0.11497969  0.67886940  0.50134973    -0.33500
H805        H  0.10631666  0.71290359  0.51030269     0.27900
H806        H  0.28278948  0.66410488  0.50663785     0.27900
H807        H  0.22227422  0.73516957  0.46252003     0.18500
H808        H  0.16814719  0.64628739  0.54197673     0.18500
C809        C  0.10441714  0.71216874  0.33201479    -0.07300
C810        C  0.07619044  0.69075145  0.33513660    -0.18500
C811        C  0.06523285  0.67047675  0.30490974     0.09900
C812        C  0.08221005  0.67207801  0.26992325    -0.07300
C813        C  0.11114170  0.69251719  0.26731083    -0.18500
C814        C  0.12236945  0.71236540  0.29761667     0.09900
S815        S  0.02951540  0.64313994  0.31295773    -0.33500
S816        S  0.15719094  0.74060666  0.28882028    -0.33500
H817        H  0.17744588  0.72513709  0.31687144     0.27900
H818        H  0.04007153  0.61699478  0.28828224     0.27900
H819        H  0.06229549  0.68998973  0.36140640     0.18500
H820        H  0.12418072  0.69470907  0.24056657     0.18500
C821        C  0.02357405  0.84569315  0.37018309    -0.07300
C822        C  0.02807780  0.87816877  0.35238818    -0.18500
C823        C  0.50098161  0.89154046  0.33614893     0.09900
C824        C  0.46824770  0.87919963  0.34105076    -0.07300
C825        C  0.46377434  0.84558988  0.35543367    -0.18500
C826        C  0.49103758  0.82628889  0.37002367     0.09900
S827        S  0.50966732  0.93299556  0.31509556    -0.33500
S828        S  0.98224871  0.78875864  0.38716550    -0.33500
H829        H  0.99264716  0.79705309  0.42389271     0.27900
H830        H  0.47973568  0.93492048  0.29411086     0.27900
H831        H  0.05274269  0.88968919  0.35078654     0.18500
H832        H  0.43854510  0.83582051  0.35915529     0.18500
C833        C  0.21669357  0.87241874  0.42483540    -0.07300
C834        C  0.24827966  0.86098579  0.43712870    -0.18500
C835        C  0.27739631  0.87909806  0.42774052     0.09900
C836        C  0.27547155  0.90734396  0.40189389    -0.07300
C837        C  0.24362177  0.92071879  0.39274857    -0.18500
C838        C  0.21422646  0.90415284  0.40487406     0.09900
S839        S  0.31590057  0.86474043  0.45005728    -0.33500
S840        S  0.17398825  0.92252836  0.39185528    -0.33500
H841        H  0.18608895  0.95367859  0.37678042     0.27900
H842        H  0.32839778  0.89833506  0.45434071     0.27900
H843        H  0.25032493  0.83738873  0.45358798     0.18500
H844        H  0.24170804  0.94306564  0.37439066     0.18500
C845        C  0.16484079  0.85922389  0.22581540    -0.07300
C846        C  0.19194248  0.85569585  0.25115472    -0.18500
C847        C  0.18646463  0.85108103  0.28954497     0.09900
C848        C  0.15344514  0.84993083  0.30300048    -0.07300
C849        C  0.12634033  0.85643469  0.27882294    -0.18500
C850        C  0.13170138  0.86203127  0.24038069     0.09900
S851        S  0.22178998  0.84570930  0.32110749    -0.33500
S852        S  0.09517127  0.87205635  0.21214211    -0.33500
H853        H  0.10976313  0.90157452  0.19590164     0.27900
H854        H  0.24376309  0.83327685  0.29338481     0.27900
H855        H  0.21750903  0.85562504  0.24096725     0.18500
H856        H  0.10097828  0.85604269  0.28971175     0.18500
C857        C  0.02406144  0.92493168  0.73852469    -0.07300
C858        C  0.01091608  0.93197716  0.77413136    -0.18500
C859        C  0.02965497  0.94985119  0.80100231     0.09900
C860        C  0.06198943  0.96272105  0.79173856    -0.07300
C861        C  0.07604408  0.95353035  0.75694123    -0.18500
C862        C  0.05738717  0.93490561  0.73030509     0.09900
S863        S  0.01099455  0.95457705  0.84696376    -0.33500
S864        S  0.07674381  0.92583295  0.68568160    -0.33500
H865        H  0.04832742  0.93556989  0.66445370     0.27900
H866        H  0.04168357  0.95192919  0.86665445     0.27900
H867        H  0.50160179  0.90328117  0.78289342     0.18500
H868        H  0.10089910  0.96249775  0.74957638     0.18500
C869        C  0.40176638  0.91085650  0.46823383    -0.07300
C870        C  0.38904636  0.93517312  0.49370938    -0.18500
C871        C  0.39391463  0.93108916  0.53221082     0.09900
C872        C  0.41123463  0.90168714  0.54547962    -0.07300
C873        C  0.42211695  0.87626212  0.52047733    -0.18500
C874        C  0.41766920  0.88058976  0.48181271     0.09900
S875        S  0.37874566  0.96484201  0.56256398    -0.33500
S876        S  0.43507547  0.84816106  0.45150220    -0.33500
H877        H  0.45101811  0.87230000  0.42796656     0.27900
H878        H  0.40628131  0.96384181  0.58737560     0.27900
H879        H  0.37621487  0.95823867  0.48341210     0.18500
H880        H  0.43543624  0.85360680  0.53110643     0.18500
C881        C  0.33555599  0.52384119  0.65197608    -0.07300
C882        C  0.32255405  0.49082110  0.64598382    -0.18500
C883        C  0.34244775  0.95929376  0.65406752     0.09900
C884        C  0.37445051  0.96313571  0.67125302    -0.07300
C885        C  0.38462931  0.99585406  0.68226692    -0.18500
C886        C  0.36611623  0.52654693  0.67270324     0.09900
S887        S  0.32668388  0.91740165  0.64142366    -0.33500
S888        S  0.38173532  0.56650490  0.69117263    -0.33500
H889        H  0.34947997  0.57898616  0.70013981     0.27900
H890        H  0.29494950  0.92852911  0.62837087     0.27900
H891        H  0.29878537  0.48829703  0.63139231     0.18500
H892        H  0.40848778  0.99885785  0.69664531     0.18500
C893        C  0.35697177  0.72162373  0.61031630    -0.07300
C894        C  0.38458739  0.72718902  0.58629205    -0.18500
C895        C  0.40987285  0.75086358  0.59570711     0.09900
C896        C  0.40880267  0.76742589  0.63094269    -0.07300
C897        C  0.38240314  0.76053057  0.65552707    -0.18500
C898        C  0.35593207  0.73946159  0.64518923     0.09900
S899        S  0.44213501  0.75974317  0.56147306    -0.33500
S900        S  0.32166193  0.73761863  0.67832106    -0.33500
H901        H  0.29807505  0.75047620  0.65198786     0.27900
H902        H  0.46517966  0.77453308  0.58661658     0.27900
H903        H  0.38610280  0.71363612  0.55974600     0.18500
H904        H  0.38076093  0.77434850  0.68197030     0.18500
C905        C  0.03724574  0.85631896  0.58855318    -0.07300
C906        C  0.05014971  0.82257068  0.58549142    -0.18500
C907        C  0.06903376  0.81212175  0.55418277     0.09900
C908        C  0.07439947  0.83537248  0.52383477    -0.07300
C909        C  0.06299670  0.86957969  0.52778682    -0.18500
C910        C  0.04502859  0.88035698  0.55956133     0.09900
S911        S  0.08577988  0.76889219  0.55538299    -0.33500
S912        S  0.03081237  0.92456014  0.55939898    -0.33500
H913        H  0.54968530  0.92875687  0.59020568     0.27900
H914        H  0.11651220  0.77770191  0.53842176     0.27900
H915        H  0.04531159  0.80391456  0.60762224     0.18500
H916        H  0.06696153  0.88803050  0.50523011     0.18500
C917        C  0.40949906  0.81852046  0.76446064    -0.07300
C918        C  0.42889137  0.79111319  0.77872772    -0.18500
C919        C  0.41766232  0.77075535  0.80856470     0.09900
C920        C  0.38673981  0.77882443  0.82647017    -0.07300
C921        C  0.36718198  0.80631330  0.81213949    -0.18500
C922        C  0.37822637  0.82621811  0.78141016     0.09900
S923        S  0.44310358  0.73334616  0.81997246    -0.33500
S924        S  0.35196827  0.86171717  0.76601115    -0.33500
H925        H  0.37879713  0.88325825  0.75590160     0.27900
H926        H  0.41559469  0.71113878  0.82427999     0.27900
H927        H  0.45234727  0.78419483  0.76505552     0.18500
H928        H  0.34342104  0.81276114  0.82536833     0.18500
O929        O  0.91242616  0.32712479  0.62735717    -0.83000
C930        C  0.50467406  0.40519907  0.70480876     0.96300
O931        O  0.50668612  0.37299568  0.69880214    -0.72100
O932        O  0.95101471  0.34492314  0.72778466    -0.75700
Al933      Al  0.97469918  0.34339682  0.68126971     1.49000
C934        C  0.91988782  0.33884135  0.73111184     0.91600
O935        O  0.89032155  0.40669968  0.68167844    -0.81900
O936        O  0.94982488  0.40496530  0.59400160    -0.75500
Al937      Al  0.90404789  0.36681321  0.65547484     1.90100
O938        O  0.92552143  0.44165737  0.65365896    -0.74600
O939        O  0.50737768  0.39259474  0.62318728    -0.74400
O940        O  0.98192856  0.42625619  0.69077118    -0.80100
O941        O  0.50010518  0.33728304  0.63091880    -0.78300
O942        O  0.94764069  0.37502854  0.66045683    -1.14400
O943        O  0.94909942  0.30337478  0.66560430    -0.73600
C944        C  0.92633619  0.30078464  0.64084311     0.97100
C945        C  0.89789140  0.43644493  0.67035562     0.93500
Al946      Al  0.96464050  0.41391023  0.64303987     1.55600
O947        O  0.90057628  0.34216282  0.70281352    -0.78200
C948        C  0.51430168  0.36194391  0.61401451     0.97700
C949        C  0.92036471  0.39818165  0.58386183     0.92500
O950        O  0.89839804  0.38920461  0.60745257    -0.83600
O951        O  0.57892265  0.34760395  0.38607371    -0.83000
C952        C  0.65568106  0.24038590  0.45060693     0.96300
O953        O  0.62372788  0.23956373  0.44633209    -0.72100
O954        O  0.58744418  0.29291500  0.47082483    -0.75700
Al955      Al  0.59125717  0.27218278  0.42267613     1.49000
C956        C  0.58921769  0.32392037  0.48088914     0.91600
O957        O  0.66186259  0.35264706  0.43404733    -0.81900
O958        O  0.64983044  0.30243213  0.33906813    -0.75500
Al959      Al  0.61993248  0.34613754  0.40980491     1.90100
O960        O  0.69048243  0.31920568  0.39688764    -0.74600
O961        O  0.64190375  0.24022573  0.36726042    -0.74400
O962        O  0.67309277  0.26097400  0.43107660    -0.80100
O963        O  0.58860234  0.24720744  0.37669691    -0.78300
O964        O  0.62368130  0.30028555  0.40658159    -1.14400
O965        O  0.55398755  0.29983144  0.40172121    -0.73600
C966        C  0.55332985  0.32916726  0.38557694     0.97100
C967        C  0.68888711  0.34522688  0.41778219     0.93500
Al968      Al  0.66052460  0.28225116  0.38575299     1.55600
O969        O  0.60015620  0.34654282  0.45849111    -0.78200
C970        C  0.61213483  0.23274708  0.35919943     0.97700
C971        C  0.64487501  0.33428963  0.33388139     0.92500
O972        O  0.63814954  0.35452846  0.36065232    -0.83600
O973        O  0.57726116  0.17544710  0.13217391    -0.83000
C974        C  0.98299246  0.09197558  0.20649310     0.96300
O975        O  0.98274398  0.12483772  0.20427350    -0.72100
O976        O  0.53690143  0.15398966  0.22700356    -0.75700
Al977      Al  0.51154776  0.15836196  0.18221664     1.49000
C978        C  0.56843666  0.15446538  0.23081091     0.91600
O979        O  0.58995704  0.08615329  0.17093898    -0.81900
O980        O  0.52597137  0.10796112  0.08919464    -0.75500
Al981      Al  0.57996649  0.13129307  0.15238340     1.90100
O982        O  0.55289171  0.06024376  0.13635474    -0.74600
O983        O  0.97616610  0.11272146  0.12897608    -0.74400
O984        O  0.00331216  0.07465129  0.18646846    -0.80100
O985        O  0.98769461  0.16655917  0.13912491    -0.78300
O986        O  0.53587563  0.12714961  0.15789733    -1.14400
O987        O  0.53753124  0.19855784  0.16627390    -0.73600
C988        C  0.56189213  0.20151581  0.14353736     0.97100
C989        C  0.58139744  0.06041456  0.15196841     0.93500
Al990      Al  0.51503909  0.09169106  0.13697636     1.55600
O991        O  0.58750577  0.14795191  0.20303349    -0.78200
C992        C  0.97163409  0.14411230  0.12117153     0.97700
C993        C  0.55503703  0.11454026  0.07726326     0.92500
O994        O  0.57954647  0.11726250  0.10009840    -0.83600
O995        O  0.90207346  0.14990162  0.89397145    -0.83000
C996        C  0.82879809  0.25945874  0.95406219     0.96300
O997        O  0.86072565  0.25993165  0.94992362    -0.72100
O998        O  0.89269359  0.20623269  0.97695895    -0.75700
Al999      Al  0.89211606  0.22554395  0.92894603     1.49000
C1000       C  0.89206809  0.17550089  0.98809445     0.91600
O1001       O  0.81777344  0.14879325  0.93938872    -0.81900
O1002       O  0.83613776  0.19897962  0.84384752    -0.75500
Al1003     Al  0.86088228  0.15306774  0.91667966     1.90100
O1004       O  0.79250109  0.18285777  0.89909906    -0.74600
O1005       O  0.84548135  0.26069051  0.87208089    -0.74400
O1006       O  0.81088268  0.23962168  0.93444710    -0.80100
O1007       O  0.89768786  0.24836732  0.88263384    -0.78300
O1008       O  0.85919929  0.19894436  0.91239047    -1.14400
O1009       O  0.92850580  0.19626818  0.91082454    -0.73600
C1010       C  0.92807032  0.16772288  0.89373710     0.97100
C1011       C  0.79190577  0.15694253  0.92074984     0.93500
Al1012     Al  0.82415414  0.21886843  0.88961816     1.55600
O1013       O  0.88083279  0.15203743  0.96690199    -0.78200
C1014       C  0.87608759  0.26536625  0.86477761     0.97700
C1015       C  0.83916724  0.16694487  0.83882894     0.92500
O1016       O  0.84311775  0.14584014  0.86617371    -0.83600
O1017       O  0.64461790  0.10202272  0.87683558    -0.83000
C1018       C  0.57987019  0.48782298  0.80832604     0.96300
O1019       O  0.61160027  0.49098503  0.81145748    -0.72100
O1020       O  0.63976146  0.04754134  0.78723439    -0.75700
Al1021     Al  0.64001676  0.02771822  0.83605187     1.49000
C1022       C  0.63946822  0.07899590  0.77842204     0.91600
O1023       O  0.56537067  0.10099988  0.82063965    -0.81900
O1024       O  0.57586239  0.05457205  0.91890039    -0.75500
Al1025     Al  0.60561653  0.09859666  0.84868134     1.90100
O1026       O  0.53728152  0.06572384  0.85698035    -0.74600
O1027       O  0.59446989  0.49249369  0.89212835    -0.74400
O1028       O  0.56011994  0.50711119  0.82633828    -0.80100
O1029       O  0.64641841  0.50405864  0.87826138    -0.78300
O1030       O  0.60515460  0.05261536  0.85221116    -1.14400
O1031       O  0.67457349  0.05955547  0.85457116    -0.73600
C1032       C  0.67236572  0.08704586  0.87385973     0.97100
C1033       C  0.53826157  0.09200335  0.83574790     0.93500
Al1034     Al  0.56973444  0.03175128  0.87300991     1.55600
O1035       O  0.62938131  0.10110973  0.80182003    -0.78200
C1036       C  0.62553527  0.48876282  0.89863291     0.97700
C1037       C  0.57654352  0.08681983  0.92267434     0.92500
O1038       O  0.58291625  0.10667853  0.89535610    -0.83600
O1039       O  0.83688578  0.08173165  0.62676812    -0.83000
C1040       C  0.73475874  0.15827530  0.55737715     0.96300
O1041       O  0.73334471  0.12556774  0.56300851    -0.72100
O1042       O  0.78682835  0.08702761  0.54522292    -0.75700
Al1043     Al  0.76328503  0.09324286  0.59112651     1.49000
C1044       C  0.81633315  0.09282963  0.53412897     0.91600
O1045       O  0.83978037  0.17034602  0.58468204    -0.81900
O1046       O  0.78493405  0.15311392  0.67416873    -0.75500
Al1047     Al  0.83384432  0.12554528  0.60584859     1.90100
O1048       O  0.80473585  0.19625072  0.62101626    -0.74600
O1049       O  0.72631901  0.14656276  0.63915446    -0.74400
O1050       O  0.75236742  0.17747087  0.57832894    -0.80100
O1051       O  0.73609294  0.09206414  0.63538319    -0.78300
O1052       O  0.78896007  0.12754946  0.60702648    -1.14400
O1053       O  0.78889671  0.05674651  0.61642617    -0.73600
C1054       C  0.81819353  0.05622560  0.63057637     0.97100
C1055       C  0.83223335  0.19607177  0.60418842     0.93500
Al1056     Al  0.76893104  0.16496209  0.62594197     1.55600
O1057       O  0.83687917  0.10808815  0.55542103    -0.78200
C1058       C  0.71996862  0.11655613  0.64973986     0.97700
C1059       C  0.81549743  0.14709951  0.68258152     0.92500
O1060       O  0.83749191  0.14146325  0.65731407    -0.83600
O1061       O  0.83373582  0.40147020  0.37995164    -0.83000
C1062       C  0.89893895  0.01074594  0.30538732     0.96300
O1063       O  0.86737175  0.01145508  0.31211912    -0.72100
O1064       O  0.83647217  0.45428125  0.29077557    -0.75700
Al1065     Al  0.84017767  0.47556410  0.33825709     1.49000
C1066       C  0.83717166  0.42277994  0.28242375     0.91600
O1067       O  0.91319401  0.39806447  0.32517680    -0.81900
O1068       O  0.90425409  0.45154780  0.41879432    -0.75500
Al1069     Al  0.87303023  0.40351091  0.35265638     1.90100
O1070       O  0.94262319  0.43310790  0.35940339    -0.74600
O1071       O  0.88859980  0.01429383  0.38914242    -0.74400
O1072       O  0.91869050  0.99157706  0.32415632    -0.80100
O1073       O  0.83573470  0.00302530  0.38344691    -0.78300
O1074       O  0.87473352  0.44945546  0.35337862    -1.14400
O1075       O  0.80553656  0.44652874  0.36033260    -0.73600
C1076       C  0.80709527  0.41863310  0.37921795     0.97100
C1077       C  0.94073968  0.40632773  0.33957937     0.93500
Al1078     Al  0.91157176  0.46981998  0.37082635     1.55600
O1079       O  0.84954228  0.40083439  0.30522956    -0.78200
C1080       C  0.85870511  0.01943409  0.39945521     0.97700
C1081       C  0.90094831  0.41999534  0.42656274     0.92500
O1082       O  0.89526680  0.39780650  0.40120787    -0.83600
O1083       O  0.65271264  0.42378386  0.12667737    -0.83000
C1084       C  0.75165594  0.34211414  0.05812314     0.96300
O1085       O  0.75451494  0.37448199  0.06313620    -0.72100
O1086       O  0.70095852  0.40696925  0.03594220    -0.75700
Al1087     Al  0.72251703  0.40813636  0.08336809     1.49000
C1088       C  0.66983551  0.40917804  0.02904371     0.91600
O1089       O  0.64342898  0.33722389  0.08129931    -0.81900
O1090       O  0.69925526  0.35288631  0.17154857    -0.75500
Al1091     Al  0.65158044  0.38101037  0.10363215     1.90100
O1092       O  0.67695659  0.30898031  0.11921443    -0.74600
O1093       O  0.75729616  0.35908875  0.13759971    -0.74400
O1094       O  0.73146895  0.32423241  0.07752455    -0.80100
O1095       O  0.74680340  0.41376368  0.12960752    -0.78300
O1096       O  0.69602507  0.37623056  0.10317154    -1.14400
O1097       O  0.69546892  0.44758586  0.09814197    -0.73600
C1098       C  0.66896590  0.44993983  0.11756439     0.97100
C1099       C  0.64998309  0.31060871  0.10055264     0.93500
Al1100     Al  0.71473772  0.33911262  0.12434523     1.55600
O1101       O  0.64849829  0.40132409  0.05402487    -0.78200
C1102       C  0.76280967  0.38998077  0.14639577     0.97700
C1103       C  0.66895633  0.35945365  0.17971945     0.92500
O1104       O  0.64696264  0.36352286  0.15413954    -0.83600
C1105       C  0.82189067  0.41203193  0.24590190    -0.07300
C1106       C  0.81970575  0.43641567  0.21632759    -0.18500
C1107       C  0.80253231  0.42942152  0.18266305     0.09900
C1108       C  0.78631004  0.39740579  0.17813304    -0.07300
C1109       C  0.79000920  0.37237285  0.20681521    -0.18500
C1110       C  0.80706192  0.37933025  0.24051381     0.09900
S1111       S  0.80281529  0.46228060  0.14649554    -0.33500
S1112       S  0.80641877  0.34609971  0.27631166    -0.33500
H1113       H  0.79586439  0.36830653  0.30520509     0.27900
H1114       H  0.80530506  0.43889274  0.11648930     0.27900
H1115       H  0.83133492  0.46139041  0.21949640     0.18500
H1116       H  0.77771762  0.34769327  0.20403885     0.18500
C1117       C  0.82748008  0.07943126  0.49659385    -0.07300
C1118       C  0.86178670  0.07209744  0.49081907    -0.18500
C1119       C  0.87322549  0.05504958  0.45836774     0.09900
C1120       C  0.84986447  0.04367154  0.43091316    -0.07300
C1121       C  0.81582975  0.05297718  0.43568563    -0.18500
C1122       C  0.80448392  0.07100933  0.46756478     0.09900
S1123       S  0.91779404  0.04743471  0.45492943    -0.33500
S1124       S  0.76061849  0.08359885  0.47007149    -0.33500
H1125       H  0.75015841  0.06867533  0.43605860     0.27900
H1126       H  0.91998882  0.06275580  0.41894672     0.27900
H1127       H  0.87992236  0.07879908  0.51232152     0.18500
H1128       H  0.79776403  0.04555054  0.41446634     0.18500
C1129       C  0.65883667  0.42500387  0.99265629    -0.07300
C1130       C  0.68062300  0.44891141  0.97593724    -0.18500
C1131       C  0.67035599  0.47017813  0.94611730     0.09900
C1132       C  0.63769564  0.46666229  0.93049523    -0.07300
C1133       C  0.61617687  0.44184138  0.94629894    -0.18500
C1134       C  0.62633421  0.42105672  0.97698556     0.09900
S1135       S  0.68862687  0.01442113  0.94838363    -0.33500
S1136       S  0.59683157  0.38975772  0.99431612    -0.33500
H1137       H  0.62141132  0.36447817  0.00263684     0.27900
H1138       H  0.65986948  0.03555362  0.94420415     0.27900
H1139       H  0.70534041  0.45298217  0.98792881     0.18500
H1140       H  0.59120479  0.43852437  0.93468504     0.18500
C1141       C  0.65386996  0.09038409  0.74170618    -0.07300
C1142       C  0.66719555  0.12373757  0.73907726    -0.18500
C1143       C  0.68685384  0.13392534  0.70833539     0.09900
C1144       C  0.69439668  0.10997258  0.67944232    -0.07300
C1145       C  0.67923956  0.07746298  0.68090052    -0.18500
C1146       C  0.65857966  0.06779634  0.71096972     0.09900
S1147       S  0.70379746  0.17679948  0.70984443    -0.33500
S1148       S  0.63872431  0.02646380  0.70788074    -0.33500
H1149       H  0.60852207  0.03803510  0.72428159     0.27900
H1150       H  0.68879389  0.18665645  0.67540890     0.27900
H1151       H  0.66364129  0.14168340  0.76201894     0.18500
H1152       H  0.68371529  0.05919451  0.65846567     0.18500
C1153       C  0.81089553  0.28286328  0.98061994    -0.07300
C1154       C  0.77625758  0.28855981  0.97432775    -0.18500
C1155       C  0.75686517  0.30884590  0.99833692     0.09900
C1156       C  0.77212336  0.32464760  0.02946850    -0.07300
C1157       C  0.80677430  0.32013544  0.03555825    -0.18500
C1158       C  0.82616647  0.29884918  0.01202929     0.09900
S1159       S  0.71251406  0.31295294  0.98807401    -0.33500
S1160       S  0.86917855  0.29088552  0.02562204    -0.33500
H1161       H  0.86642915  0.25487747  0.02251833     0.27900
H1162       H  0.70846173  0.34609331  0.00307943     0.27900
H1163       H  0.76380640  0.27688186  0.95049022     0.18500
H1164       H  0.81836039  0.33158622  0.06007185     0.18500
C1165       C  0.83591961  0.15466189  0.80035754    -0.07300
C1166       C  0.86154414  0.16234988  0.77478663    -0.18500
C1167       C  0.85667165  0.15829454  0.73609155     0.09900
C1168       C  0.82503108  0.14703410  0.72274585    -0.07300
C1169       C  0.80008412  0.13785463  0.74882167    -0.18500
C1170       C  0.80511161  0.14186780  0.78742396     0.09900
S1171       S  0.89037045  0.17174969  0.70568064    -0.33500
S1172       S  0.77085015  0.13422927  0.81953430    -0.33500
H1173       H  0.74863417  0.11965230  0.79329958     0.27900
H1174       H  0.89353697  0.13969755  0.68791480     0.27900
H1175       H  0.88492651  0.17305344  0.78496628     0.18500
H1176       H  0.77595296  0.12896605  0.73879540     0.18500
C1177       C  0.70218600  0.10311200  0.89259896    -0.07300
C1178       C  0.73301265  0.08517173  0.89371052    -0.18500
C1179       C  0.76234689  0.10050788  0.90774967     0.09900
C1180       C  0.76143679  0.13514992  0.92015199    -0.07300
C1181       C  0.73043027  0.15218919  0.92156222    -0.18500
C1182       C  0.70084472  0.13681337  0.90868615     0.09900
S1183       S  0.80080420  0.07597638  0.90465656    -0.33500
S1184       S  0.66278313  0.16274854  0.91094726    -0.33500
H1185       H  0.67431553  0.18687234  0.93731955     0.27900
H1186       H  0.81152628  0.08455829  0.94115130     0.27900
H1187       H  0.73460355  0.05923539  0.88247774     0.18500
H1188       H  0.72983189  0.17888814  0.93057423     0.18500
C1189       C  0.95716570  0.15334969  0.87235135    -0.07300
C1190       C  0.95173163  0.12227748  0.85263484    -0.18500
C1191       C  0.97789032  0.10431741  0.83551183     0.09900
C1192       C  0.50966695  0.11615231  0.83677112    -0.07300
C1193       C  0.51497816  0.14762767  0.85526042    -0.18500
C1194       C  0.98940699  0.16836982  0.87039724     0.09900
S1195       S  0.96879020  0.06308907  0.81474923    -0.33500
S1196       S  0.49920405  0.20216757  0.90080133    -0.33500
H1197       H  0.98999382  0.19531984  0.92948192     0.27900
H1198       H  0.49751223  0.06474228  0.78552200     0.27900
H1199       H  0.92710373  0.11066189  0.85179798     0.18500
H1200       H  0.54042520  0.15654388  0.85965936     0.18500
C1201       C  0.95820691  0.07290450  0.23058318    -0.07300
C1202       C  0.95531424  0.03704115  0.22531678    -0.18500
C1203       C  0.93350467  0.01695949  0.24699510     0.09900
C1204       C  0.91419848  0.03237368  0.27562140    -0.07300
C1205       C  0.91572103  0.06821755  0.28025882    -0.18500
C1206       C  0.93701876  0.08866114  0.25783307     0.09900
S1207       S  0.92675953  0.47299385  0.23228373    -0.33500
S1208       S  0.93696923  0.13422896  0.26695729    -0.33500
H1209       H  0.92654507  0.14282798  0.23010677     0.27900
H1210       H  0.89456366  0.46876503  0.24778192     0.27900
H1211       H  0.97022560  0.02420841  0.20407181     0.18500
H1212       H  0.90133507  0.08017474  0.30254572     0.18500
C1213       C  0.90880982  0.16795469  0.02483384    -0.07300
C1214       C  0.93658940  0.18861834  0.03392087    -0.18500
C1215       C  0.95695975  0.18166396  0.06510005     0.09900
C1216       C  0.94909063  0.15396136  0.08944118    -0.07300
C1217       C  0.92079092  0.13364329  0.08116205    -0.18500
C1218       C  0.90045121  0.14052421  0.04937052     0.09900
S1219       S  0.47118403  0.22174083  0.08643754    -0.33500
S1220       S  0.86394773  0.11416425  0.04229873    -0.33500
H1221       H  0.84404039  0.14067147  0.02632062     0.27900
H1222       H  0.50075261  0.20197959  0.08187446     0.27900
H1223       H  0.94391574  0.20941192  0.01520925     0.18500
H1224       H  0.91448331  0.11228535  0.09955815     0.18500
C1225       C  0.57595441  0.23507943  0.13168263    -0.07300
C1226       C  0.58403821  0.23981742  0.09329957    -0.18500
C1227       C  0.60751392  0.26459900  0.08156824     0.09900
C1228       C  0.62361549  0.28492183  0.10886102    -0.07300
C1229       C  0.61432607  0.28121513  0.14689589    -0.18500
C1230       C  0.59054253  0.25690767  0.15853904     0.09900
S1231       S  0.61752907  0.26696129  0.03208414    -0.33500
S1232       S  0.58145323  0.25176120  0.20812599    -0.33500
H1233       H  0.60424843  0.27639323  0.22147893     0.27900
H1234       H  0.64992940  0.28061415  0.03604029     0.27900
H1235       H  0.57362527  0.22248945  0.07259452     0.18500
H1236       H  0.62649839  0.29696403  0.16779876     0.18500
C1237       C  0.65245357  0.48306115  0.12496935    -0.07300
C1238       C  0.62699971  0.49202483  0.09945064    -0.18500
C1239       C  0.61287407  0.02256364  0.10615816     0.09900
C1240       C  0.60619204  0.03264607  0.14376650    -0.07300
C1241       C  0.62495046  0.01736784  0.17316340    -0.18500
C1242       C  0.65366098  0.49931921  0.16031637     0.09900
S1243       S  0.58935088  0.03959329  0.06661233    -0.33500
S1244       S  0.68480739  0.48825277  0.19550767    -0.33500
H1245       H  0.70777358  0.47215821  0.17112688     0.27900
H1246       H  0.60967549  0.02612522  0.03777700     0.27900
H1247       H  0.62574021  0.47850237  0.07292747     0.18500
H1248       H  0.62038783  0.02507193  0.20189888     0.18500
C1249       C  0.56906601  0.10129111  0.95938098    -0.07300
C1250       C  0.59524057  0.11571344  0.98024879    -0.18500
C1251       C  0.59099160  0.12320847  0.01853396     0.09900
C1252       C  0.55998392  0.11526035  0.03597120    -0.07300
C1253       C  0.53295882  0.10417510  0.01349161    -0.18500
C1254       C  0.53720812  0.09720109  0.97555579     0.09900
S1255       S  0.62542247  0.14217192  0.04421806    -0.33500
S1256       S  0.50140659  0.08171517  0.94963736    -0.33500
H1257       H  0.51044381  0.09790146  0.91576307     0.27900
H1258       H  0.64794597  0.14461598  0.01384477     0.27900
H1259       H  0.61938324  0.11935630  0.96698938     0.18500
H1260       H  0.50855672  0.09923874  0.02568738     0.18500
C1261       C  0.67444414  0.21719350  0.47778113    -0.07300
C1262       C  0.70910858  0.22340495  0.48258779    -0.18500
C1263       C  0.72944211  0.20283912  0.50586442     0.09900
C1264       C  0.71526464  0.17545070  0.52663647    -0.07300
C1265       C  0.68102564  0.16808698  0.52131397    -0.18500
C1266       C  0.66051733  0.18856867  0.49731827     0.09900
S1267       S  0.77375635  0.21268941  0.50721415    -0.33500
S1268       S  0.61716328  0.17643524  0.49285239    -0.33500
H1269       H  0.60494264  0.20880895  0.50413562     0.27900
H1270       H  0.78471168  0.17843056  0.51298363     0.27900
H1271       H  0.72102843  0.24450050  0.46774910     0.18500
H1272       H  0.66982847  0.14715010  0.53713900     0.18500
C1273       C  0.60462092  0.20742564  0.32886689    -0.07300
C1274       C  0.57477851  0.18834394  0.33093408    -0.18500
C1275       C  0.56419306  0.16749800  0.30105452     0.09900
C1276       C  0.58292478  0.16669083  0.26712974    -0.07300
C1277       C  0.61395826  0.18367544  0.26617763    -0.18500
C1278       C  0.62506918  0.20364050  0.29645056     0.09900
S1279       S  0.52653006  0.14269939  0.30813290    -0.33500
S1280       S  0.66376948  0.22658644  0.28983247    -0.33500
H1281       H  0.67953709  0.21022808  0.32077562     0.27900
H1282       H  0.53693207  0.11493579  0.28552902     0.27900
H1283       H  0.55932223  0.18991932  0.35596782     0.18500
H1284       H  0.62883057  0.18333768  0.24063758     0.18500
C1285       C  0.52308013  0.34471279  0.36636711    -0.07300
C1286       C  0.52692563  0.37807566  0.35052214    -0.18500
C1287       C  0.00237649  0.39408316  0.33495120     0.09900
C1288       C  0.96948079  0.38207112  0.33920234    -0.07300
C1289       C  0.96448726  0.34836463  0.35311744    -0.18500
C1290       C  0.99138644  0.32850774  0.36772513     0.09900
S1291       S  0.01165258  0.43565156  0.31442128    -0.33500
S1292       S  0.48268406  0.28655858  0.38116548    -0.33500
H1293       H  0.49271192  0.29408857  0.41823219     0.27900
H1294       H  0.98181712  0.43857041  0.29320584     0.27900
H1295       H  0.55131968  0.39030839  0.34987164     0.18500
H1296       H  0.93912146  0.33884002  0.35630905     0.18500
C1297       C  0.71797990  0.36854202  0.41895716    -0.07300
C1298       C  0.74945296  0.35426056  0.42729658    -0.18500
C1299       C  0.77895046  0.37201885  0.41908249     0.09900
C1300       C  0.77726416  0.40392495  0.39885069    -0.07300
C1301       C  0.74562579  0.41955734  0.39363878    -0.18500
C1302       C  0.71599008  0.40247719  0.40407978     0.09900
S1303       S  0.81748713  0.35166363  0.43495389    -0.33500
S1304       S  0.67589488  0.42285360  0.39429263    -0.33500
H1305       H  0.68843153  0.45476127  0.38184341     0.27900
H1306       H  0.83147779  0.38267005  0.44775684     0.27900
H1307       H  0.75105987  0.32857619  0.43945624     0.18500
H1308       H  0.74396970  0.44425911  0.37939129     0.18500
C1309       C  0.65974274  0.36080043  0.21978315    -0.07300
C1310       C  0.68613526  0.36431330  0.24585997    -0.18500
C1311       C  0.68102703  0.35825778  0.28403525     0.09900
C1312       C  0.64914083  0.34810361  0.29625006    -0.07300
C1313       C  0.62193910  0.34787303  0.27128358    -0.18500
C1314       C  0.62665990  0.35531392  0.23316102     0.09900
S1315       S  0.71590071  0.36105508  0.31642223    -0.33500
S1316       S  0.58979219  0.35625242  0.20358403    -0.33500
H1317       H  0.59753984  0.38857383  0.18765749     0.27900
H1318       H  0.73586212  0.38192366  0.29302866     0.27900
H1319       H  0.71130771  0.37009087  0.23620449     0.18500
H1320       H  0.59713163  0.34109148  0.28141776     0.18500
C1321       C  0.52774102  0.42161102  0.73177370    -0.07300
C1322       C  0.51971644  0.42100650  0.77011719    -0.18500
C1323       C  0.53805324  0.44039496  0.79610719     0.09900
C1324       C  0.56485611  0.46139733  0.78356782    -0.07300
C1325       C  0.57403604  0.46028140  0.74554594    -0.18500
C1326       C  0.55579524  0.44076450  0.71956297     0.09900
S1327       S  0.52592733  0.43746934  0.84490863    -0.33500
S1328       S  0.56840296  0.44247001  0.67091405    -0.33500
H1329       H  0.56117780  0.40770416  0.66381617     0.27900
H1330       H  0.55868964  0.44138875  0.85914156     0.27900
H1331       H  0.98892079  0.42004122  0.78034022     0.18500
H1332       H  0.59476429  0.47596868  0.73563879     0.18500
C1333       C  0.90352697  0.40979753  0.46610609    -0.07300
C1334       C  0.88159905  0.42597177  0.49142404    -0.18500
C1335       C  0.88566497  0.42177926  0.53020088     0.09900
C1336       C  0.91211151  0.40073812  0.54386316    -0.07300
C1337       C  0.93307885  0.38329863  0.51852056    -0.18500
C1338       C  0.92920741  0.38778515  0.47974161     0.09900
S1339       S  0.85790921  0.44579357  0.56047645    -0.33500
S1340       S  0.95911741  0.36667834  0.44956821    -0.33500
H1341       H  0.96220969  0.39433632  0.42404970     0.27900
H1342       H  0.88281591  0.45458890  0.58679107     0.27900
H1343       H  0.86199329  0.44313033  0.48086299     0.18500
H1344       H  0.95340880  0.36705754  0.52910225     0.18500
C1345       C  0.83269142  0.02539054  0.65042879    -0.07300
C1346       C  0.82057405  0.99236714  0.64255388    -0.18500
C1347       C  0.83992043  0.46203638  0.65894437     0.09900
C1348       C  0.87335957  0.46516360  0.67234957    -0.07300
C1349       C  0.88580986  0.49786773  0.67991669    -0.18500
C1350       C  0.86205898  0.02803552  0.67317822     0.09900
S1351       S  0.82097144  0.42031361  0.65261891    -0.33500
S1352       S  0.87593510  0.06770422  0.69378698    -0.33500
H1353       H  0.84299465  0.07934835  0.70074233     0.27900
H1354       H  0.78851899  0.43249806  0.64350553     0.27900
H1355       H  0.79764563  0.98991141  0.62633175     0.18500
H1356       H  0.91081411  0.50044241  0.69174845     0.18500
C1357       C  0.85740716  0.22288219  0.61315494    -0.07300
C1358       C  0.88374027  0.22979435  0.58789605    -0.18500
C1359       C  0.90921593  0.25321191  0.59710060     0.09900
C1360       C  0.90977194  0.26808482  0.63324210    -0.07300
C1361       C  0.88491772  0.25947981  0.65916847    -0.18500
C1362       C  0.85805345  0.23875991  0.64918136     0.09900
S1363       S  0.93950684  0.26427206  0.56139857    -0.33500
S1364       S  0.82529312  0.23513902  0.68399301    -0.33500
H1365       H  0.80072326  0.24990438  0.66008685     0.27900
H1366       H  0.96377052  0.27777222  0.58599582     0.27900
H1367       H  0.88393371  0.21767687  0.56040169     0.18500
H1368       H  0.88448050  0.27206587  0.68646508     0.18500
C1369       C  0.53842703  0.35472428  0.58280280    -0.07300
C1370       C  0.55287143  0.32157188  0.58028862    -0.18500
C1371       C  0.57208213  0.31163882  0.54903446     0.09900
C1372       C  0.57587047  0.33466116  0.51823779    -0.07300
C1373       C  0.56324193  0.36841643  0.52174121    -0.18500
C1374       C  0.54519307  0.37883601  0.55353711     0.09900
S1375       S  0.59153154  0.26953300  0.55071169    -0.33500
S1376       S  0.52955377  0.42255181  0.55308374    -0.33500
H1377       H  0.03794171  0.43299486  0.58231052     0.27900
H1378       H  0.62066426  0.27942055  0.53111480     0.27900
H1379       H  0.54904446  0.30302178  0.60284844     0.18500
H1380       H  0.56623744  0.38670478  0.49874011     0.18500
C1381       C  0.90661249  0.32535454  0.76774000    -0.07300
C1382       C  0.92955885  0.31861585  0.79717753    -0.18500
C1383       C  0.92000032  0.30122367  0.83022444     0.09900
C1384       C  0.88660304  0.28913556  0.83390102    -0.07300
C1385       C  0.86315868  0.29787152  0.80574072    -0.18500
C1386       C  0.87244091  0.31627295  0.77336232     0.09900
S1387       S  0.95110391  0.29489130  0.86699859    -0.33500
S1388       S  0.83913418  0.32678044  0.74062363    -0.33500
H1389       H  0.84869447  0.36152193  0.73702463     0.27900
H1390       H  0.97439908  0.31909042  0.85348044     0.27900
H1391       H  0.95560575  0.32608669  0.79392097     0.18500
H1392       H  0.83725369  0.28960024  0.80848187     0.18500
O1393       O  0.91130011  0.82890303  0.62633550    -0.83000
C1394       C  0.50545716  0.90524332  0.70761140     0.96300
O1395       O  0.50727656  0.87298202  0.70199426    -0.72100
O1396       O  0.94862631  0.84571029  0.72760972    -0.75700
Al1397     Al  0.97292605  0.84413845  0.68169552     1.49000
C1398       C  0.91748396  0.83970058  0.73060032     0.91600
O1399       O  0.88920873  0.90834231  0.68088720    -0.81900
O1400       O  0.95048124  0.90669005  0.59443177    -0.75500
Al1401     Al  0.90300004  0.86846799  0.65476150     1.90100
O1402       O  0.92492080  0.94333453  0.65373593    -0.74600
O1403       O  0.50822127  0.89204965  0.62553353    -0.74400
O1404       O  0.98081011  0.92679752  0.69256080    -0.80100
O1405       O  0.50098454  0.83683503  0.63445649    -0.78300
O1406       O  0.94657601  0.87621391  0.66067889    -1.14400
O1407       O  0.94713933  0.80450005  0.66503322    -0.73600
C1408       C  0.92484202  0.80231813  0.63966386     0.97100
C1409       C  0.89674802  0.93803299  0.66933183     0.93500
Al1410     Al  0.96431719  0.91507662  0.64408403     1.55600
O1411       O  0.89835355  0.84335306  0.70209980    -0.78200
C1412       C  0.51515441  0.86118970  0.61700664     0.97700
C1413       C  0.92101816  0.90048521  0.58380171     0.92500
O1414       O  0.89864867  0.89134176  0.60684863    -0.83600
O1415       O  0.57939443  0.84418869  0.38827906    -0.83000
C1416       C  0.65705059  0.73700554  0.45166977     0.96300
O1417       O  0.62512408  0.73618355  0.44754987    -0.72100
O1418       O  0.58920505  0.78949686  0.47415804    -0.75700
Al1419     Al  0.59244044  0.76926827  0.42539947     1.49000
C1420       C  0.58981842  0.82072566  0.48385101     0.91600
O1421       O  0.66177956  0.85086852  0.43677269    -0.81900
O1422       O  0.65088408  0.80047173  0.34178971    -0.75500
Al1423     Al  0.62007185  0.84355346  0.41235491     1.90100
O1424       O  0.69113363  0.81785410  0.39983764    -0.74600
O1425       O  0.64286810  0.73828087  0.36914386    -0.74400
O1426       O  0.67418029  0.75881991  0.43348496    -0.80100
O1427       O  0.58949135  0.74521723  0.37885762    -0.78300
O1428       O  0.62451837  0.79781277  0.40922539    -1.14400
O1429       O  0.55474472  0.79678770  0.40566564    -0.73600
C1430       C  0.55393571  0.82561687  0.38854458     0.97100
C1431       C  0.68889138  0.84420361  0.42027866     0.93500
Al1432     Al  0.66153532  0.78031748  0.38832269     1.55600
O1433       O  0.59991435  0.84348209  0.46102122    -0.78200
C1434       C  0.61297498  0.73121763  0.36080870     0.97700
C1435       C  0.64547241  0.83217232  0.33643559     0.92500
O1436       O  0.63835952  0.85234682  0.36314983    -0.83600
O1437       O  0.57428141  0.67403974  0.13141206    -0.83000
C1438       C  0.98207861  0.59260139  0.20726698     0.96300
O1439       O  0.98138178  0.62545129  0.20481398    -0.72100
O1440       O  0.53581185  0.65338304  0.22855807    -0.75700
Al1441     Al  0.50993258  0.65839471  0.18397351     1.49000
C1442       C  0.56743242  0.65458664  0.23137826     0.91600
O1443       O  0.58730575  0.58570959  0.17233359    -0.81900
O1444       O  0.52331211  0.60618349  0.09003037    -0.75500
Al1445     Al  0.57750645  0.63042937  0.15281104     1.90100
O1446       O  0.54907585  0.55969421  0.13951717    -0.74600
O1447       O  0.97523836  0.61257221  0.12920805    -0.74400
O1448       O  0.00247616  0.57536446  0.18733079    -0.80100
O1449       O  0.98605800  0.66655504  0.13881923    -0.78300
O1450       O  0.53344081  0.62675047  0.15913041    -1.14400
O1451       O  0.53650567  0.69785847  0.16771597    -0.73600
C1452       C  0.55996578  0.70036392  0.14377990     0.97100
C1453       C  0.57804157  0.55983980  0.15393718     0.93500
Al1454     Al  0.51195979  0.59143082  0.13886737     1.55600
O1455       O  0.58587299  0.64838604  0.20296775    -0.78200
C1456       C  0.97048434  0.64378428  0.12075401     0.97700
C1457       C  0.55272101  0.61119296  0.07798450     0.92500
O1458       O  0.57699237  0.61477925  0.10092992    -0.83600
O1459       O  0.90113224  0.64887808  0.89025892    -0.83000
C1460       C  0.82587552  0.75684966  0.95190360     0.96300
O1461       O  0.85767684  0.75773006  0.94757662    -0.72100
O1462       O  0.88960812  0.70439341  0.97581628    -0.75700
Al1463     Al  0.88941165  0.72365485  0.92740663     1.49000
C1464       C  0.89117686  0.67338012  0.98610059     0.91600
O1465       O  0.81802509  0.64524428  0.93828147    -0.81900
O1466       O  0.83358250  0.69524879  0.84203862    -0.75500
Al1467     Al  0.86039393  0.65050119  0.91439989     1.90100
O1468       O  0.79126965  0.67899535  0.89859751    -0.74600
O1469       O  0.84269545  0.75740318  0.86895010    -0.74400
O1470       O  0.80827433  0.73679592  0.93223601    -0.80100
O1471       O  0.89492836  0.74633768  0.88097430    -0.78300
O1472       O  0.85728783  0.69639495  0.91042314    -1.14400
O1473       O  0.92634485  0.69502200  0.91019189    -0.73600
C1474       C  0.92674325  0.66726424  0.89166128     0.97100
C1475       C  0.79165473  0.65312026  0.92038670     0.93500
Al1476     Al  0.82181598  0.71551940  0.88765893     1.55600
O1477       O  0.88164059  0.64974889  0.96407470    -0.78200
C1478       C  0.87336750  0.76278089  0.86237884     0.97700
C1479       C  0.83707724  0.66326440  0.83718204     0.92500
O1480       O  0.84158819  0.64244151  0.86459824    -0.83600
O1481       O  0.64526311  0.59996321  0.87569132    -0.83000
C1482       C  0.58026215  0.98785139  0.81144557     0.96300
O1483       O  0.61196331  0.99131006  0.81478462    -0.72100
O1484       O  0.63847506  0.54759528  0.78401819    -0.75700
Al1485     Al  0.63991152  0.52732679  0.83237721     1.49000
C1486       C  0.63925426  0.57916321  0.77593422     0.91600
O1487       O  0.56616801  0.60168904  0.81975841    -0.81900
O1488       O  0.57664805  0.55295144  0.91685281    -0.75500
Al1489     Al  0.60641924  0.59809895  0.84754914     1.90100
O1490       O  0.53778103  0.56582583  0.85519541    -0.74600
O1491       O  0.59358680  0.99319591  0.89550618    -0.74400
O1492       O  0.56016043  0.00684793  0.82936411    -0.80100
O1493       O  0.64578760  0.00461914  0.88246351    -0.78300
O1494       O  0.60545601  0.55216286  0.84972441    -1.14400
O1495       O  0.67498324  0.55884425  0.85038290    -0.73600
C1496       C  0.67294653  0.58527345  0.87136135     0.97100
C1497       C  0.53900762  0.59263600  0.83471353     0.93500
Al1498     Al  0.57018987  0.53123292  0.87042862     1.55600
O1499       O  0.63031269  0.60119257  0.80016501    -0.78200
C1500       C  0.62450795  0.98922052  0.90230754     0.97700
C1501       C  0.57715664  0.58501323  0.92186024     0.92500
O1502       O  0.58382263  0.60555090  0.89510015    -0.83600
O1503       O  0.83994580  0.58017008  0.62469036    -0.83000
C1504       C  0.73680633  0.65335341  0.55461882     0.96300
O1505       O  0.73578849  0.62083198  0.56139391    -0.72100
O1506       O  0.78995440  0.58287547  0.54518847    -0.75700
Al1507     Al  0.76595122  0.58994704  0.59064567     1.49000
C1508       C  0.81888874  0.59026286  0.53331532     0.91600
O1509       O  0.84160813  0.66902840  0.58311927    -0.81900
O1510       O  0.78598471  0.65168479  0.67154792    -0.75500
Al1511     Al  0.83592101  0.62406683  0.60409400     1.90100
O1512       O  0.80543664  0.69462645  0.61818211    -0.74600
O1513       O  0.72766156  0.64399943  0.63602437    -0.74400
O1514       O  0.75417248  0.67357692  0.57470583    -0.80100
O1515       O  0.73840042  0.58959242  0.63477586    -0.78300
O1516       O  0.79102862  0.62517084  0.60528617    -1.14400
O1517       O  0.79178607  0.55482921  0.61737254    -0.73600
C1518       C  0.82145546  0.55479351  0.63030954     0.97100
C1519       C  0.83327546  0.69478721  0.60212144     0.93500
Al1520     Al  0.77027470  0.66256681  0.62296489     1.55600
O1521       O  0.83898605  0.60704689  0.55370160    -0.78200
C1522       C  0.72166034  0.61429009  0.64782002     0.97700
C1523       C  0.81639985  0.64531363  0.68045780     0.92500
O1524       O  0.83883362  0.63977776  0.65561439    -0.83600
O1525       O  0.83090346  0.90350950  0.37889484    -0.83000
C1526       C  0.90048008  0.50918809  0.30586348     0.96300
O1527       O  0.86906483  0.50972572  0.31321447    -0.72100
O1528       O  0.83392799  0.95588381  0.29060337    -0.75700
Al1529     Al  0.83802300  0.97784744  0.33786178     1.49000
C1530       C  0.83554070  0.92441899  0.28208411     0.91600
O1531       O  0.91176506  0.89963573  0.32641795    -0.81900
O1532       O  0.90171029  0.95395859  0.41890412    -0.75500
Al1533     Al  0.87091023  0.90559367  0.35277026     1.90100
O1534       O  0.94052892  0.93542740  0.36030652    -0.74600
O1535       O  0.89086812  0.51191575  0.38886070    -0.74400
O1536       O  0.92055548  0.48952846  0.32361831    -0.80100
O1537       O  0.83799250  0.49995887  0.38413430    -0.78300
O1538       O  0.87251955  0.95164314  0.35340128    -1.14400
O1539       O  0.80313713  0.94934505  0.36059171    -0.73600
C1540       C  0.80450502  0.92113173  0.37893295     0.97100
C1541       C  0.93913846  0.90835814  0.34092815     0.93500
Al1542     Al  0.90925690  0.97207063  0.37118714     1.55600
O1543       O  0.84851636  0.90282912  0.30482900    -0.78200
C1544       C  0.86102479  0.51676992  0.39951681     0.97700
C1545       C  0.89846602  0.92247260  0.42694254     0.92500
O1546       O  0.89224468  0.90014515  0.40187905    -0.83600
O1547       O  0.65291096  0.92140239  0.12892888    -0.83000
C1548       C  0.75008145  0.83861622  0.05863410     0.96300
O1549       O  0.75330547  0.87094292  0.06339460    -0.72100
O1550       O  0.69954028  0.90267157  0.03615118    -0.75700
Al1551     Al  0.72135996  0.90478622  0.08327273     1.49000
C1552       C  0.66846109  0.90653254  0.03013737     0.91600
O1553       O  0.64193467  0.83546025  0.08260416    -0.81900
O1554       O  0.69825146  0.85004856  0.17271522    -0.75500
Al1555     Al  0.65059820  0.87881150  0.10525790     1.90100
O1556       O  0.67570916  0.80646192  0.11979592    -0.74600
O1557       O  0.75619711  0.85679311  0.13880585    -0.74400
O1558       O  0.73026423  0.82110331  0.07881729    -0.80100
O1559       O  0.74572842  0.91122809  0.12897443    -0.78300
O1560       O  0.69496682  0.87338222  0.10409756    -1.14400
O1561       O  0.69455397  0.94447454  0.09769469    -0.73600
C1562       C  0.66922961  0.94728922  0.11896312     0.97100
C1563       C  0.64873430  0.80844340  0.10107161     0.93500
Al1564     Al  0.71363980  0.83636462  0.12544370     1.55600
O1565       O  0.64716852  0.89964890  0.05558092    -0.78200
C1566       C  0.76179174  0.88799427  0.14648189     0.97700
C1567       C  0.66801578  0.85638897  0.18123560     0.92500
O1568       O  0.64594083  0.86083458  0.15579577    -0.83600
C1569       C  0.82063494  0.91314152  0.24544047    -0.07300
C1570       C  0.81550189  0.93799816  0.21677531    -0.18500
C1571       C  0.79856077  0.93017971  0.18317706     0.09900
C1572       C  0.78548890  0.89671069  0.17773744    -0.07300
C1573       C  0.79229086  0.87137452  0.20538909    -0.18500
C1574       C  0.80918513  0.87914233  0.23898954     0.09900
S1575       S  0.79491139  0.96417534  0.14844659    -0.33500
S1576       S  0.81277479  0.84477882  0.27328023    -0.33500
H1577       H  0.79884299  0.86425048  0.30275397     0.27900
H1578       H  0.80077759  0.94234098  0.11761665     0.27900
H1579       H  0.82457023  0.96394613  0.22059330     0.18500
H1580       H  0.78260284  0.84561188  0.20196340     0.18500
C1581       C  0.83000183  0.57703318  0.49589406    -0.07300
C1582       C  0.86433481  0.56995753  0.49010903    -0.18500
C1583       C  0.87574586  0.55275326  0.45781975     0.09900
C1584       C  0.85230328  0.54122489  0.43057339    -0.07300
C1585       C  0.81826511  0.55049172  0.43524005    -0.18500
C1586       C  0.80694016  0.56850199  0.46704439     0.09900
S1587       S  0.92028344  0.54480213  0.45453735    -0.33500
S1588       S  0.76299115  0.58067241  0.46989426    -0.33500
H1589       H  0.75314073  0.56843627  0.43437336     0.27900
H1590       H  0.92269832  0.56007554  0.41855040     0.27900
H1591       H  0.88245651  0.57679598  0.51157440     0.18500
H1592       H  0.80015695  0.54285921  0.41415010     0.18500
C1593       C  0.65781074  0.92405276  0.99476403    -0.07300
C1594       C  0.67613037  0.95328762  0.98412989    -0.18500
C1595       C  0.66535814  0.97508151  0.95499459     0.09900
C1596       C  0.63611920  0.96697814  0.93415624    -0.07300
C1597       C  0.61800361  0.93722323  0.94418975    -0.18500
C1598       C  0.62860688  0.91565877  0.97414839     0.09900
S1599       S  0.69948462  0.50332619  0.93230161    -0.33500
S1600       S  0.60460201  0.87742485  0.98395649    -0.33500
H1601       H  0.63178040  0.85774493  0.99810319     0.27900
H1602       H  0.67541857  0.53005572  0.93471491     0.27900
H1603       H  0.69806117  0.96056471  0.00032754     0.18500
H1604       H  0.59569776  0.93051088  0.92836096     0.18500
C1605       C  0.65382583  0.59031796  0.73910551    -0.07300
C1606       C  0.66801898  0.62328560  0.73642263    -0.18500
C1607       C  0.68832640  0.63272418  0.70586681     0.09900
C1608       C  0.69567953  0.60840359  0.67728593    -0.07300
C1609       C  0.67970019  0.57633888  0.67871062    -0.18500
C1610       C  0.65833265  0.56744665  0.70847952     0.09900
S1611       S  0.70647801  0.67505787  0.70728890    -0.33500
S1612       S  0.63758443  0.52654168  0.70517443    -0.33500
H1613       H  0.60751577  0.53842516  0.72161516     0.27900
H1614       H  0.69180633  0.68526294  0.67279349     0.27900
H1615       H  0.66470205  0.64139902  0.75918752     0.18500
H1616       H  0.68403984  0.55786428  0.65649158     0.18500
C1617       C  0.80794629  0.77965847  0.97920032    -0.07300
C1618       C  0.77249053  0.78017309  0.97782583    -0.18500
C1619       C  0.75336165  0.80023813  0.00232585     0.09900
C1620       C  0.76954733  0.82073467  0.02931014    -0.07300
C1621       C  0.80480277  0.82133611  0.03043546    -0.18500
C1622       C  0.82414808  0.80058371  0.00629354     0.09900
S1623       S  0.70820654  0.79863263  0.99743900    -0.33500
S1624       S  0.86898064  0.80067621  0.01330837    -0.33500
H1625       H  0.87122546  0.76455991  0.01696339     0.27900
H1626       H  0.70180533  0.83258003  0.00925788     0.27900
H1627       H  0.75919143  0.76479774  0.95742942     0.18500
H1628       H  0.81728197  0.83663365  0.05154572     0.18500
C1629       C  0.83463491  0.65082344  0.79871509    -0.07300
C1630       C  0.86065307  0.65908698  0.77389333    -0.18500
C1631       C  0.85646991  0.65588711  0.73503707     0.09900
C1632       C  0.82521527  0.64450559  0.72077010    -0.07300
C1633       C  0.79995193  0.63440188  0.74606508    -0.18500
C1634       C  0.80420168  0.63786167  0.78487337     0.09900
S1635       S  0.89022958  0.67118727  0.70575972    -0.33500
S1636       S  0.76951061  0.62924685  0.81612640    -0.33500
H1637       H  0.74715281  0.61673155  0.78875496     0.27900
H1638       H  0.89438096  0.64003566  0.68651021     0.27900
H1639       H  0.88372237  0.66994675  0.78481659     0.18500
H1640       H  0.77614442  0.62530675  0.73526034     0.18500
C1641       C  0.70270715  0.60042187  0.89084215    -0.07300
C1642       C  0.73342675  0.58229312  0.89131271    -0.18500
C1643       C  0.76264215  0.59692946  0.90642013     0.09900
C1644       C  0.76161857  0.63097160  0.92053350    -0.07300
C1645       C  0.73064843  0.64788245  0.92298640    -0.18500
C1646       C  0.70124288  0.63335163  0.90870682     0.09900
S1647       S  0.80109757  0.57246192  0.90265853    -0.33500
S1648       S  0.66345638  0.65976603  0.91102366    -0.33500
H1649       H  0.67497848  0.68365479  0.93764721     0.27900
H1650       H  0.81231334  0.58090727  0.93900871     0.27900
H1651       H  0.73504707  0.55698123  0.87870810     0.18500
H1652       H  0.73010406  0.67410402  0.93332928     0.18500
C1653       C  0.95670369  0.65453510  0.87088960    -0.07300
C1654       C  0.95195131  0.62641192  0.84631219    -0.18500
C1655       C  0.97904036  0.60873086  0.83059433     0.09900
C1656       C  0.51083596  0.61727778  0.83662729    -0.07300
C1657       C  0.51635352  0.64750960  0.85731452    -0.18500
C1658       C  0.98950692  0.66765252  0.87534316     0.09900
S1659       S  0.97065991  0.57100040  0.80280337    -0.33500
S1660       S  0.50044443  0.70069627  0.90462744    -0.33500
H1661       H  0.98441514  0.68851370  0.93738608     0.27900
H1662       H  0.49931394  0.57086196  0.78010832     0.27900
H1663       H  0.92699237  0.61678649  0.84062980     0.18500
H1664       H  0.54187854  0.65555601  0.86310461     0.18500
C1665       C  0.95765291  0.57329909  0.23137982    -0.07300
C1666       C  0.95240723  0.53820494  0.22326705    -0.18500
C1667       C  0.93124426  0.51766008  0.24520306     0.09900
C1668       C  0.91497545  0.53187542  0.27671817    -0.07300
C1669       C  0.91876579  0.56708689  0.28424340    -0.18500
C1670       C  0.93945616  0.58801662  0.26172461     0.09900
S1671       S  0.93192704  0.97134507  0.23737068    -0.33500
S1672       S  0.94310316  0.63251886  0.27487070    -0.33500
H1673       H  0.92996576  0.64465632  0.24033215     0.27900
H1674       H  0.89891012  0.96644297  0.25033101     0.27900
H1675       H  0.96504449  0.52635985  0.19960056     0.18500
H1676       H  0.90672025  0.57801651  0.30880105     0.18500
C1677       C  0.90808168  0.66589503  0.02292674    -0.07300
C1678       C  0.93423338  0.68815895  0.03341395    -0.18500
C1679       C  0.95450864  0.68173980  0.06492720     0.09900
C1680       C  0.94808404  0.65294211  0.08836683    -0.07300
C1681       C  0.92146198  0.63087346  0.07850165    -0.18500
C1682       C  0.90137767  0.63710841  0.04630747     0.09900
S1683       S  0.48629999  0.71169214  0.07511408    -0.33500
S1684       S  0.86731203  0.60799352  0.03719397    -0.33500
H1685       H  0.84550018  0.63335971  0.02216489     0.27900
H1686       H  0.50940833  0.68412833  0.07863062     0.27900
H1687       H  0.94040410  0.70997546  0.01553815     0.18500
H1688       H  0.91625545  0.60853867  0.09598172     0.18500
C1689       C  0.57430809  0.73360983  0.13175982    -0.07300
C1690       C  0.58277408  0.73782963  0.09345439    -0.18500
C1691       C  0.60633459  0.76240150  0.08161951     0.09900
C1692       C  0.62230723  0.78287070  0.10895633    -0.07300
C1693       C  0.61276499  0.77948546  0.14691558    -0.18500
C1694       C  0.58870361  0.75558215  0.15853974     0.09900
S1695       S  0.61666414  0.76348986  0.03211500    -0.33500
S1696       S  0.57889015  0.75133451  0.20803097    -0.33500
H1697       H  0.60500859  0.77210055  0.22165244     0.27900
H1698       H  0.64109378  0.78921204  0.03292995     0.27900
H1699       H  0.57245594  0.72029201  0.07285913     0.18500
H1700       H  0.62491647  0.79524441  0.16782849     0.18500
C1701       C  0.65459239  0.98092984  0.12829401    -0.07300
C1702       C  0.63757533  0.99767350  0.09893849    -0.18500
C1703       C  0.60178655  0.51573879  0.10869363     0.09900
C1704       C  0.60253438  0.53210474  0.14439628    -0.07300
C1705       C  0.62914380  0.52422088  0.16935529    -0.18500
C1706       C  0.64836707  0.99089240  0.16584929     0.09900
S1707       S  0.56918175  0.52417721  0.07399092    -0.33500
S1708       S  0.66835698  0.96958327  0.20546028    -0.33500
H1709       H  0.69588196  0.95608287  0.18541898     0.27900
H1710       H  0.58085976  0.50184607  0.04577132     0.27900
H1711       H  0.64147874  0.98887028  0.07044696     0.18500
H1712       H  0.63038300  0.53688755  0.19637738     0.18500
C1713       C  0.56860560  0.59803946  0.95931704    -0.07300
C1714       C  0.59287293  0.61551494  0.98032425    -0.18500
C1715       C  0.58795834  0.62206338  0.01885335     0.09900
C1716       C  0.55840124  0.60996178  0.03668093    -0.07300
C1717       C  0.53328945  0.59474552  0.01448930    -0.18500
C1718       C  0.53793939  0.58908222  0.97622401     0.09900
S1719       S  0.61948025  0.64589010  0.04426554    -0.33500
S1720       S  0.50396137  0.56979496  0.95036381    -0.33500
H1721       H  0.50943440  0.58932805  0.91747830     0.27900
H1722       H  0.63847353  0.65590412  0.01269787     0.27900
H1723       H  0.61626117  0.62259562  0.96691898     0.18500
H1724       H  0.50998501  0.58622735  0.02710265     0.18500
C1725       C  0.67608213  0.71218037  0.47670133    -0.07300
C1726       C  0.71144662  0.71518911  0.47741729    -0.18500
C1727       C  0.73177343  0.69385957  0.49978741     0.09900
C1728       C  0.71700446  0.66910809  0.52356444    -0.07300
C1729       C  0.68211483  0.66415663  0.52159236    -0.18500
C1730       C  0.66152054  0.68522168  0.49842414     0.09900
S1731       S  0.77672920  0.69953298  0.49679710    -0.33500
S1732       S  0.61726420  0.67609310  0.49824508    -0.33500
H1733       H  0.60792659  0.70986184  0.50762427     0.27900
H1734       H  0.78526362  0.66513824  0.50582598     0.27900
H1735       H  0.72388287  0.73444055  0.46025741     0.18500
H1736       H  0.67059845  0.64496048  0.53966799     0.18500
C1737       C  0.60518127  0.70686007  0.32959423    -0.07300
C1738       C  0.57676329  0.68570313  0.33260266    -0.18500
C1739       C  0.56582486  0.66542330  0.30234929     0.09900
C1740       C  0.58269320  0.66714215  0.26725166    -0.07300
C1741       C  0.61231638  0.68652967  0.26507162    -0.18500
C1742       C  0.62370517  0.70615682  0.29553624     0.09900
S1743       S  0.53029796  0.63780031  0.31053206    -0.33500
S1744       S  0.65971530  0.73291998  0.28730533    -0.33500
H1745       H  0.67881825  0.71683301  0.31596747     0.27900
H1746       H  0.54087766  0.61193755  0.28550041     0.27900
H1747       H  0.56273299  0.68514524  0.35873958     0.18500
H1748       H  0.62564980  0.68831945  0.23854122     0.18500
C1749       C  0.52369969  0.84036393  0.36888396    -0.07300
C1750       C  0.52808711  0.87203108  0.34946016    -0.18500
C1751       C  0.00119085  0.89752462  0.33805409     0.09900
C1752       C  0.96846793  0.88462798  0.34086255    -0.07300
C1753       C  0.96407151  0.85045733  0.35368388    -0.18500
C1754       C  0.99116073  0.83098691  0.36866286     0.09900
S1755       S  0.01001668  0.93934648  0.31795481    -0.33500
S1756       S  0.48207479  0.78538695  0.39182315    -0.33500
H1757       H  0.49441329  0.79549368  0.42722714     0.27900
H1758       H  0.98101188  0.94103264  0.29526896     0.27900
H1759       H  0.55288079  0.88295782  0.34605056     0.18500
H1760       H  0.93891173  0.84012818  0.35567177     0.18500
C1761       C  0.71698470  0.86897854  0.42028153    -0.07300
C1762       C  0.74896175  0.85700609  0.43030958    -0.18500
C1763       C  0.77762376  0.87613275  0.42184234     0.09900
C1764       C  0.77483353  0.90647425  0.39905870    -0.07300
C1765       C  0.74259160  0.92000713  0.39202068    -0.18500
C1766       C  0.71365143  0.90208797  0.40337400     0.09900
S1767       S  0.81670932  0.86012121  0.44139649    -0.33500
S1768       S  0.67284885  0.92048439  0.39281609    -0.33500
H1769       H  0.68413745  0.95330065  0.38173230     0.27900
H1770       H  0.82888848  0.89322177  0.44949654     0.27900
H1771       H  0.75165749  0.83220961  0.44444232     0.18500
H1772       H  0.73998067  0.94367951  0.37582259     0.18500
C1773       C  0.65917364  0.85728186  0.22154103    -0.07300
C1774       C  0.68585055  0.86098088  0.24726978    -0.18500
C1775       C  0.68122983  0.85526497  0.28562888     0.09900
C1776       C  0.64938628  0.84568551  0.29856128    -0.07300
C1777       C  0.62200171  0.84475920  0.27385540    -0.18500
C1778       C  0.62632169  0.85144591  0.23547235     0.09900
S1779       S  0.71664785  0.85764371  0.31739390    -0.33500
S1780       S  0.58923081  0.85082835  0.20630993    -0.33500
H1781       H  0.59573246  0.88327669  0.18999196     0.27900
H1782       H  0.73791919  0.87545602  0.29250599     0.27900
H1783       H  0.71087517  0.86674126  0.23717678     0.18500
H1784       H  0.59738155  0.83788638  0.28438994     0.18500
C1785       C  0.52854351  0.92185732  0.73443755    -0.07300
C1786       C  0.52185931  0.91949194  0.77307750    -0.18500
C1787       C  0.54015192  0.93893684  0.79911850     0.09900
C1788       C  0.56564604  0.96146602  0.78640279    -0.07300
C1789       C  0.57349147  0.96226383  0.74798214    -0.18500
C1790       C  0.55516034  0.94289720  0.72194548     0.09900
S1791       S  0.52951927  0.93428034  0.84820879    -0.33500
S1792       S  0.56592585  0.94715866  0.67291819    -0.33500
H1793       H  0.56057153  0.91222775  0.66473942     0.27900
H1794       H  0.56237613  0.93966772  0.86149561     0.27900
H1795       H  0.98577894  0.92344747  0.78108681     0.18500
H1796       H  0.59284207  0.97909574  0.73804734     0.18500
C1797       C  0.90188424  0.91273650  0.46655709    -0.07300
C1798       C  0.88353025  0.93231430  0.49249588    -0.18500
C1799       C  0.88921339  0.92879981  0.53099262     0.09900
C1800       C  0.91284718  0.90422466  0.54397332    -0.07300
C1801       C  0.93050340  0.88379094  0.51820329    -0.18500
C1802       C  0.92561824  0.88817744  0.47951459     0.09900
S1803       S  0.86773186  0.95844733  0.56157109    -0.33500
S1804       S  0.95231229  0.86402903  0.44843798    -0.33500
H1805       H  0.95862682  0.89200794  0.42413468     0.27900
H1806       H  0.89499123  0.96295805  0.58625965     0.27900
H1807       H  0.86578534  0.95177670  0.48252531     0.18500
H1808       H  0.94909066  0.86524453  0.52829362     0.18500
C1809       C  0.83629948  0.52468140  0.65107234    -0.07300
C1810       C  0.82202066  0.49187880  0.64755996    -0.18500
C1811       C  0.83925320  0.96264398  0.65274510     0.09900
C1812       C  0.87141925  0.96623058  0.66966402    -0.07300
C1813       C  0.88172203  0.99885385  0.68086311    -0.18500
C1814       C  0.86722196  0.52740699  0.67104642     0.09900
S1815       S  0.82322666  0.92076726  0.64033525    -0.33500
S1816       S  0.88488676  0.56751808  0.68623073    -0.33500
H1817       H  0.85345990  0.58102977  0.69683004     0.27900
H1818       H  0.79246711  0.93225320  0.62491066     0.27900
H1819       H  0.79785369  0.48942926  0.63380497     0.18500
H1820       H  0.90562661  0.00168683  0.69521218     0.18500
C1821       C  0.85773269  0.72231528  0.61125663    -0.07300
C1822       C  0.88344664  0.73067471  0.58570579    -0.18500
C1823       C  0.90792554  0.75525326  0.59476562     0.09900
C1824       C  0.90831615  0.76971849  0.63113371    -0.07300
C1825       C  0.88384432  0.76015286  0.65710846    -0.18500
C1826       C  0.85773335  0.73816653  0.64733489     0.09900
S1827       S  0.93704139  0.76819648  0.55854600    -0.33500
S1828       S  0.82461647  0.73199633  0.68169125    -0.33500
H1829       H  0.83568146  0.75565708  0.70877789     0.27900
H1830       H  0.96095978  0.78304216  0.58259725     0.27900
H1831       H  0.88381670  0.71884960  0.55809176     0.18500
H1832       H  0.88362178  0.77253503  0.68443889     0.18500
C1833       C  0.53917739  0.85319047  0.58581554    -0.07300
C1834       C  0.55233896  0.81948302  0.58319342    -0.18500
C1835       C  0.57124570  0.80880686  0.55196630     0.09900
C1836       C  0.57618489  0.83168121  0.52120984    -0.07300
C1837       C  0.56471736  0.86591287  0.52482555    -0.18500
C1838       C  0.54692353  0.87699378  0.55659633     0.09900
S1839       S  0.58876869  0.76590719  0.55384192    -0.33500
S1840       S  0.53304279  0.92131068  0.55625576    -0.33500
H1841       H  0.04772722  0.93213460  0.59315699     0.27900
H1842       H  0.61900244  0.77485701  0.53587119     0.27900
H1843       H  0.54772788  0.80106571  0.60561389     0.18500
H1844       H  0.56853985  0.88415655  0.50204499     0.18500
C1845       C  0.90433196  0.82555798  0.76706091    -0.07300
C1846       C  0.92778649  0.81539324  0.79478510    -0.18500
C1847       C  0.91829361  0.79704079  0.82719426     0.09900
C1848       C  0.88424210  0.78713932  0.83193094    -0.07300
C1849       C  0.86039045  0.79939667  0.80560843    -0.18500
C1850       C  0.86983305  0.81910818  0.77403902     0.09900
S1851       S  0.95066748  0.78657836  0.86149755    -0.33500
S1852       S  0.83642384  0.83556033  0.74442968    -0.33500
H1853       H  0.85078678  0.86843945  0.74043020     0.27900
H1854       H  0.97467406  0.81031235  0.84859238     0.27900
H1855       H  0.95416246  0.82082704  0.79058123     0.18500
H1856       H  0.83406641  0.79330260  0.80934186     0.18500
loop_ 
_geom_bond_atom_site_label_1 
_geom_bond_atom_site_label_2 
_geom_bond_distance 
_geom_bond_site_symmetry_2 
_ccdc_geom_bond_type 
O1           C16   1.250       .  A
O1           Al9   1.872       .  S
C2            O3   1.269       .  A
C2          O940   1.262   1_455  A
C2          C393   1.476       .  S
O3         Al933   1.950   1_455  S
O4            C6   1.264       .  A
O4           Al5   1.892       .  S
Al5          O15   1.946       .  S
Al5         O931   1.949       .  S
Al5         O941   1.907       .  S
Al5          O14   1.780       .  S
C6           O19   1.268       .  A
C6          C453   1.481       .  S
O7           C17   1.258       .  A
O7           Al9   1.891       .  S
O8           C21   1.256       .  A
O8          Al18   1.871       .  S
Al9          O22   1.914       .  S
Al9          O19   1.932       .  S
Al9          O14   1.778       .  S
O10          C17   1.267       .  A
O10         Al18   1.934       .  S
O11          C20   1.265       .  A
O11        Al946   1.929   1_455  S
O12         C930   1.263       .  A
O12         Al18   1.890       .  S
O13          C20   1.265   1_655  A
O13        Al933   1.910       .  S
O14         Al18   1.772       .  S
O15          C16   1.265       .  A
C16         C432   1.464       .  S
C17         C420   1.482       .  S
Al18        O939   1.926       .  S
C20         C441   1.494       .  S
C21          O22   1.261       .  A
C21         C408   1.450       .  S
O23          C38   1.247       .  A
O23         Al31   1.825       .  S
C24          O34   1.263       .  A
C24          O25   1.280       .  A
C24         C333   1.508       .  S
O25         Al27   1.989       .  S
O26          C28   1.262       .  A
O26         Al27   1.906       .  S
Al27         O35   1.903       .  S
Al27         O37   1.970       .  S
Al27         O36   1.787       .  S
C28          O41   1.264       .  A
C28         C444   1.494       .  S
O29          C39   1.255       .  A
O29         Al31   1.894       .  S
O30          C43   1.259       .  A
O30         Al40   1.863       .  S
Al31         O44   1.929       .  S
Al31         O41   1.915       .  S
Al31         O36   1.784       .  S
O32          C39   1.260       .  A
O32         Al40   1.916       .  S
O33          C42   1.258       .  A
O33         Al40   1.925       .  S
O34         Al40   1.863       .  S
O35          C42   1.257       .  A
O36         Al40   1.778       .  S
O37          C38   1.271       .  A
C38         C357   1.499       .  S
C39         C369   1.475       .  S
C42         C345   1.491       .  S
C43          O44   1.266       .  A
C43         C384   1.455       .  S
O45          C60   1.248       .  A
O45         Al53   1.850       .  S
C46          O56   1.270       .  A
C46          O47   1.278       .  A
C46         C273   1.503       .  S
O47        Al977   1.970       .  S
O48          C50   1.262       .  A
O48         Al49   1.891       .  S
Al49         O59   1.953       .  S
Al49        O975   1.964   1_455  S
Al49        O985   1.904   1_455  S
Al49         O58   1.777       .  S
C50          O63   1.269       .  A
C50         C348   1.491       .  S
O51          C61   1.257       .  A
O51         Al53   1.900       .  S
O52          C65   1.263       .  A
O52         Al62   1.870       .  S
Al53         O66   1.937       .  S
Al53         O63   1.931       .  S
Al53         O58   1.778       .  S
O54          C61   1.259       .  A
O54         Al62   1.920       .  S
O55          C64   1.259       .  A
O55        Al990   1.917       .  S
O56        Al990   1.887       .  S
O57          C64   1.260       .  A
O57        Al977   1.909       .  S
O58         Al62   1.781       .  S
O59          C60   1.268       .  A
C60         C297   1.483       .  S
C61         C312   1.485       .  S
Al62        O983   1.920   1_455  S
Al62        O984   1.890       .  S
C64         C288   1.493       .  S
C65          O66   1.269       .  A
C65         C324   1.485       .  S
O67          C82   1.249       .  A
O67         Al75   1.833       .  S
C68          O78   1.262       .  A
C68          O69   1.276       .  A
C68         C225   1.495       .  S
O69         Al71   1.966       .  S
O70          C72   1.255       .  A
O70         Al71   1.867       .  S
Al71         O79   1.871       .  S
Al71         O81   1.955       .  S
Al71         O80   1.774       .  S
C72          O85   1.266       .  A
C72         C285   1.494   1_556  S
O73          C83   1.258       .  A
O73         Al75   1.894       .  S
O74          C87   1.257       .  A
O74         Al84   1.861       .  S
Al75         O88   1.943       .  S
Al75         O85   1.942       .  S
Al75         O80   1.786       .  S
O76          C83   1.264       .  A
O76         Al84   1.921       .  S
O77          C86   1.261       .  A
O77         Al84   1.937       .  S
O78         Al84   1.869       .  S
O79          C86   1.250       .  A
O80         Al84   1.777       .  S
O81          C82   1.270       .  A
C82         C261   1.492       .  S
C83         C252   1.476       .  S
C86         C456   1.487       .  S
C87          O88   1.269       .  A
C87         C237   1.454       .  S
O89         C104   1.245       .  A
O89         Al97   1.833       .  S
C90         O100   1.261       .  A
C90          O91   1.278       .  A
C90         C396   1.488       .  S
O91        Al557   1.974       .  S
O92          C94   1.255       .  A
O92         Al93   1.883       .  S
Al93        O103   1.963       .  S
Al93        O555   1.978   1_545  S
Al93        O565   1.872       .  S
Al93        O102   1.782       .  S
C94         O107   1.264       .  A
C94         C213   1.496       .  S
O95         C105   1.255       .  A
O95         Al97   1.884       .  S
O96         C109   1.258       .  A
O96        Al106   1.869       .  S
Al97        O110   1.940       .  S
Al97        O107   1.926       .  S
Al97        O102   1.789       .  S
O98         C105   1.262       .  A
O98        Al106   1.910       .  S
O99         C108   1.259       .  A
O99        Al570   1.931       .  S
O100       Al570   1.867       .  S
O101        C108   1.253       .  A
O101       Al557   1.874       .  S
O102       Al106   1.785       .  S
O103        C104   1.273       .  A
C104        C249   1.495       .  S
C105        C264   1.466       .  S
Al106       O563   1.931   1_545  S
Al106       O564   1.866       .  S
C108        C204   1.480       .  S
C109        O110   1.268       .  A
C109        C321   1.459       .  S
O111        C126   1.248       .  A
O111       Al119   1.846       .  S
C112        O122   1.269       .  A
C112        O113   1.283       .  A
C112        C336   1.482       .  S
O113       Al115   1.982       .  S
O114        C116   1.260       .  A
O114       Al115   1.892       .  S
Al115       O123   1.910       .  S
Al115       O125   1.945       .  S
Al115       O124   1.779       .  S
C116        O129   1.264       .  A
C116        C189   1.492       .  S
O117        C127   1.254       .  A
O117       Al119   1.906       .  S
O118        C131   1.269       .  A
O118       Al128   1.873       .  S
Al119       O132   1.936       .  S
Al119       O129   1.915       .  S
Al119       O124   1.789       .  S
O120        C127   1.250       .  A
O120       Al128   1.892       .  S
O121        C130   1.250       .  A
O121       Al128   1.910       .  S
O122       Al128   1.872       .  S
O123        C130   1.254       .  A
O124       Al128   1.782       .  S
O125        C126   1.267       .  A
C126        C417   1.491       .  S
C127        C429   1.489       .  S
C130        C216   1.496       .  S
C131        O132   1.273       .  A
C131        C240   1.471       .  S
O133        C148   1.248       .  A
O133       Al141   1.846       .  S
C134        O144   1.262   1_545  A
C134        O135   1.277       .  A
C134        C276   1.479       .  S
O135       Al601   1.973   1_545  S
O136        C138   1.260       .  A
O136       Al137   1.890       .  S
Al137       O147   1.943       .  S
Al137       O599   1.972       .  S
Al137       O609   1.895       .  S
Al137       O146   1.781       .  S
C138        O151   1.263       .  A
C138        C177   1.493       .  S
O139        C149   1.254       .  A
O139       Al141   1.893       .  S
O140        C153   1.260       .  A
O140       Al150   1.852       .  S
Al141       O154   1.937       .  S
Al141       O151   1.915       .  S
Al141       O146   1.788       .  S
O142        C149   1.259       .  A
O142       Al150   1.911       .  S
O143        C152   1.261       .  A
O143       Al614   1.936   1_545  S
O144       Al614   1.872       .  S
O145        C152   1.255   1_565  A
O145       Al601   1.889       .  S
O146       Al150   1.782       .  S
O147        C148   1.268       .  A
C148        C372   1.491       .  S
C149        C360   1.476       .  S
Al150       O607   1.929       .  S
Al150       O608   1.864       .  S
C152        C192   1.495       .  S
C153        O154   1.271       .  A
C153        C405   1.453       .  S
O155        C170   1.248       .  A
O155       Al163   1.869       .  S
C156        O166   1.266       .  A
C156        O157   1.271       .  A
C156        C228   1.475       .  S
O157       Al159   1.951       .  S
O158        C160   1.262       .  A
O158       Al159   1.878       .  S
Al159       O167   1.893       .  S
Al159       O169   1.940       .  S
Al159       O168   1.775       .  S
C160        O173   1.271       .  A
C160        C201   1.472   1_554  S
O161        C171   1.257       .  A
O161       Al163   1.892       .  S
O162        C175   1.260       .  A
O162       Al172   1.867       .  S
Al163       O176   1.930       .  S
Al163       O173   1.943       .  S
Al163       O168   1.771       .  S
O164        C171   1.264       .  A
O164       Al172   1.931       .  S
O165        C174   1.267       .  A
O165       Al172   1.938       .  S
O166       Al172   1.898       .  S
O167        C174   1.260       .  A
O168       Al172   1.771       .  S
O169        C170   1.263       .  A
C170        C309   1.463       .  S
C171        C300   1.473       .  S
C174        C180   1.491       .  S
C175        O176   1.267       .  A
C175        C381   1.479       .  S
C177        C178   1.407       .  A
C177        C182   1.418       .  A
C178        C179   1.401       .  A
C178        H187   1.082       .  S
C179        C180   1.417       .  A
C179        S183   1.803       .  S
C180        C181   1.407       .  A
C181        C182   1.402       .  A
C181        H188   1.082       .  S
C182        S184   1.802       .  S
S183        H186   1.408       .  S
S184        H185   1.408       .  S
C189        C190   1.406       .  A
C189        C194   1.416       .  A
C190        C191   1.404       .  A
C190        H199   1.082       .  S
C191        C192   1.418       .  A
C191        S195   1.800       .  S
C192        C193   1.408       .  A
C193        C194   1.405       .  A
C193        H200   1.081       .  S
C194        S196   1.810       .  S
S195        H198   1.407       .  S
S196        H197   1.406       .  S
C201        C202   1.399       .  A
C201        C206   1.412       .  A
C202        C203   1.391       .  A
C202        H211   1.085   1_556  S
C203        C204   1.415       .  A
C203        S671   1.805       .  S
C204        C205   1.409       .  A
C205        C206   1.409       .  A
C205        H212   1.085       .  S
C206        S208   1.803       .  S
S207        C667   1.805   1_545  S
S207        H210   1.408       .  S
S208        H209   1.406   1_556  S
C213        C214   1.405       .  A
C213        C218   1.420       .  A
C214        C215   1.402       .  A
C214        H223   1.084       .  S
C215        C216   1.421       .  A
C215        S219   1.801       .  S
C216        C217   1.405       .  A
C217        C218   1.402       .  A
C217        H224   1.084       .  S
C218        S220   1.803       .  S
S219        H222   1.408       .  S
S220        H221   1.408       .  S
C225        C226   1.411       .  A
C225        C230   1.418   1_556  A
C226        C227   1.398       .  A
C226        H235   1.085       .  S
C227        C228   1.408   1_556  A
C227        S231   1.806       .  S
C228        C229   1.404       .  A
C229        C230   1.406       .  A
C229        H236   1.085       .  S
C230        S232   1.799       .  S
S231        H234   1.403   1_556  S
S232        H233   1.406       .  S
C237        C238   1.400       .  A
C237        C242   1.403       .  A
C238        C239   1.395       .  A
C238        H247   1.083       .  S
C239        C240   1.415       .  A
C239        S243   1.801       .  S
C240        C241   1.406       .  A
C241        C242   1.396       .  A
C241        H248   1.083       .  S
C242        S244   1.806       .  S
S243        H246   1.404       .  S
S244        H245   1.407       .  S
C249        C250   1.403       .  A
C249        C254   1.432       .  A
C250        C251   1.403       .  A
C250        H259   1.084       .  S
C251        C252   1.415       .  A
C251        S255   1.798       .  S
C252        C253   1.393       .  A
C253        C254   1.398       .  A
C253        H260   1.085       .  S
C254        S256   1.813       .  S
S255        H258   1.407       .  S
S256        H257   1.407       .  S
C261        C262   1.417       .  A
C261        C266   1.413       .  A
C262        C263   1.394       .  A
C262        H271   1.083       .  S
C263       C1192   1.400       .  A
C263        S267   1.804       .  S
C264        C265   1.408       .  A
C264       C1191   1.400   1_455  A
C265       C1194   1.405   1_455  A
C265        H272   1.083       .  S
C266       C1193   1.403       .  A
C266       S1196   1.799       .  S
S267       H1198   1.407       .  S
S268       C1194   1.799       .  S
S268       H1197   1.408       .  S
H269       S1196   1.408       .  S
H270       S1195   1.407       .  S
C273        C274   1.410       .  A
C273        C278   1.423       .  A
C274        C275   1.398       .  A
C274        H283   1.084       .  S
C275        C276   1.409       .  A
C275        S743   1.805   1_545  S
C276        C277   1.403       .  A
C277        C278   1.409       .  A
C277        H284   1.085       .  S
C278        S280   1.799       .  S
S279        C739   1.806       .  S
S279        H282   1.406       .  S
S280        H281   1.408       .  S
C285        C286   1.410       .  A
C285        C290   1.414       .  A
C286        C287   1.396       .  A
C286        H295   1.083       .  S
C287        C288   1.415       .  A
C287       S1219   1.803       .  S
C288        C289   1.412       .  A
C289        C290   1.405       .  A
C289        H296   1.083       .  S
C290        S292   1.802       .  S
S291       C1215   1.806       .  S
S291        H294   1.408   1_655  S
S292        H293   1.407       .  S
C297        C298   1.412       .  A
C297        C302   1.410       .  A
C298        C299   1.402       .  A
C298        H307   1.084       .  S
C299        C300   1.405       .  A
C299        S303   1.804       .  S
C300        C301   1.407       .  A
C301        C302   1.405       .  A
C301        H308   1.083       .  S
C302        S304   1.808       .  S
S303        H306   1.405       .  S
S304        H305   1.407       .  S
C309        C310   1.393       .  A
C309        C314   1.411       .  A
C310        C775   1.395       .  A
C310        H319   1.084       .  S
C311        C312   1.421       .  A
C311        C774   1.396   1_545  A
C311        S315   1.808       .  S
C312        C313   1.406       .  A
C313        C778   1.406   1_545  A
C313        H320   1.082       .  S
C314        C777   1.407       .  A
C314        S316   1.804       .  S
S315        H318   1.407       .  S
S316        H317   1.407       .  S
C321        C322   1.399       .  A
C321        C326   1.405       .  A
C322        C323   1.404   1_556  A
C322        H331   1.084       .  S
C323        C324   1.420       .  A
C323        S327   1.808       .  S
C324        C325   1.408       .  A
C325        C326   1.388   1_554  A
C325        H332   1.085       .  S
C326        S328   1.802       .  S
S327        H330   1.407       .  S
S328        H329   1.396       .  S
C333        C334   1.414       .  A
C333        C338   1.422       .  A
C334        C335   1.395       .  A
C334        H343   1.081       .  S
C335        C336   1.407       .  A
C335        S339   1.807       .  S
C336        C337   1.406       .  A
C337        C338   1.413       .  A
C337        H344   1.082       .  S
C338        S340   1.799       .  S
S339        H342   1.407       .  S
S340        H341   1.401       .  S
C345        C346   1.406       .  A
C345        C350   1.417       .  A
C346        C347   1.404       .  A
C346        H355   1.085       .  S
C347        C348   1.417       .  A
C347        S351   1.804       .  S
C348        C349   1.405       .  A
C349        C350   1.401       .  A
C349        H356   1.085       .  S
C350        S352   1.800       .  S
S351        H354   1.408       .  S
S352        H353   1.407       .  S
C357        C358   1.418       .  A
C357       C1290   1.414   1_455  A
C358       C1287   1.393       .  A
C358        H367   1.083       .  S
C359        C360   1.403       .  A
C359       C1286   1.392       .  A
C359        S363   1.806       .  S
C360        C361   1.409       .  A
C361        C362   1.410       .  A
C361        H368   1.084       .  S
C362       C1285   1.416       .  A
C362       S1292   1.798       .  S
S363        H366   1.406       .  S
S364       C1290   1.798       .  S
S364        H365   1.407       .  S
C369        C370   1.395       .  A
C369        C374   1.417       .  A
C370        C371   1.396       .  A
C370        H379   1.084       .  S
C371        C372   1.425       .  A
C371        S375   1.803       .  S
C372        C373   1.402       .  A
C373        C374   1.405       .  A
C373        H380   1.082       .  S
C374        S376   1.805       .  S
S375        H378   1.406       .  S
S376        H377   1.406       .  S
C381        C382   1.407       .  A
C381        C386   1.419       .  A
C382        C383   1.390       .  A
C382        H391   1.082       .  S
C383        C384   1.404       .  A
C383        S387   1.810       .  S
C384        C385   1.398       .  A
C385        C386   1.399       .  A
C385        H392   1.084       .  S
C386        S388   1.800       .  S
S387        H390   1.406       .  S
S388        H389   1.407       .  S
C393        C394   1.397       .  A
C393        C398   1.414       .  A
C394        C395   1.399       .  A
C394       H1331   1.084   1_455  S
C395        C396   1.420       .  A
C395        S399   1.804       .  S
C396        C397   1.403       .  A
C397        C398   1.406       .  A
C397        H404   1.082       .  S
C398        S400   1.800       .  S
S399        H402   1.407       .  S
S400        H401   1.404       .  S
H403       C1322   1.087       .  S
C405        C406   1.401       .  A
C405        C410   1.407       .  A
C406        C407   1.388       .  A
C406        H415   1.086       .  S
C407        C408   1.406       .  A
C407        S411   1.801       .  S
C408        C409   1.401       .  A
C409        C410   1.393       .  A
C409        H416   1.086       .  S
C410        S412   1.799       .  S
S411        H414   1.405       .  S
S412        H413   1.406       .  S
C417        C418   1.401   1_545  A
C417        C422   1.424       .  A
C418        C883   1.407       .  A
C418        H427   1.082       .  S
C419        C420   1.419       .  A
C419        C882   1.410       .  A
C419        S423   1.806       .  S
C420        C421   1.395       .  A
C421        C886   1.396       .  A
C421        H428   1.084       .  S
C422        C885   1.395   1_545  A
C422        S424   1.800       .  S
S423        H426   1.407       .  S
S424        H425   1.405       .  S
C429        C430   1.409       .  A
C429        C434   1.423       .  A
C430        C431   1.409       .  A
C430        H439   1.086       .  S
C431        C432   1.412       .  A
C431        S435   1.803       .  S
C432        C433   1.393       .  A
C433        C434   1.389       .  A
C433        H440   1.088       .  S
C434        S436   1.804       .  S
S435        H438   1.406       .  S
S436        H437   1.408       .  S
C441        C442   1.406       .  A
C441        C446   1.420       .  A
C442        C443   1.404       .  A
C442        H451   1.086       .  S
C443        C444   1.416       .  A
C443        S447   1.799       .  S
C444        C445   1.405       .  A
C445        C446   1.401       .  A
C445        H452   1.086       .  S
C446        S448   1.800       .  S
S447        H450   1.407       .  S
S448       H1377   1.407       .  S
H449       S1376   1.407       .  S
C453        C454   1.400       .  A
C453        C458   1.415       .  A
C454        C455   1.395       .  A
C454        H463   1.085       .  S
C455        C456   1.419       .  A
C455        S459   1.804       .  S
C456        C457   1.406       .  A
C457        C458   1.406       .  A
C457        H464   1.084       .  S
C458        S460   1.801       .  S
S459        H462   1.407       .  S
S460        H461   1.407       .  S
O465        C480   1.249       .  A
O465       Al473   1.869       .  S
C466       O1404   1.263   1_455  A
C466        O467   1.269       .  A
C466        C857   1.480       .  S
O467      Al1397   1.953   1_455  S
O468        C470   1.264       .  A
O468       Al469   1.891       .  S
Al469      O1395   1.949       .  S
Al469      O1405   1.903       .  S
Al469       O479   1.950       .  S
Al469       O478   1.779       .  S
C470        O483   1.266       .  A
C470        C917   1.477       .  S
O471        C481   1.258       .  A
O471       Al473   1.885       .  S
O472        C485   1.255       .  A
O472       Al482   1.870       .  S
Al473       O486   1.908       .  S
Al473       O483   1.929       .  S
Al473       O478   1.777       .  S
O474        C481   1.268       .  A
O474       Al482   1.935       .  S
O475        C484   1.266       .  A
O475      Al1410   1.934   1_455  S
O476       C1394   1.262       .  A
O476       Al482   1.888       .  S
O477        C484   1.265   1_655  A
O477      Al1397   1.904       .  S
O478       Al482   1.771       .  S
O479        C480   1.266       .  A
C480        C896   1.463       .  S
C481        C884   1.477       .  S
Al482      O1403   1.931       .  S
C484        C905   1.496       .  S
C485        O486   1.258       .  A
C485        C872   1.444       .  S
O487        C502   1.247       .  A
O487       Al495   1.831       .  S
C488        O498   1.264       .  A
C488        O489   1.280       .  A
C488        C797   1.511       .  S
O489       Al491   1.989       .  S
O490        C492   1.261       .  A
O490       Al491   1.905       .  S
Al491       O499   1.899       .  S
Al491       O501   1.968       .  S
Al491       O500   1.791       .  S
C492        O505   1.264       .  A
C492        C908   1.497       .  S
O493        C503   1.255       .  A
O493       Al495   1.897       .  S
O494        C507   1.259       .  A
O494       Al504   1.863       .  S
Al495       O508   1.920       .  S
Al495       O505   1.911       .  S
Al495       O500   1.787       .  S
O496        C503   1.259       .  A
O496       Al504   1.921       .  S
O497        C506   1.259       .  A
O497       Al504   1.928       .  S
O498       Al504   1.870       .  S
O499        C506   1.255       .  A
O500       Al504   1.784       .  S
O501        C502   1.270       .  A
C502        C821   1.503       .  S
C503        C833   1.480       .  S
C506        C809   1.492       .  S
C507        O508   1.264       .  A
C507        C848   1.449       .  S
O509        C524   1.248       .  A
O509       Al517   1.849       .  S
C510        O520   1.267       .  A
C510        O511   1.275       .  A
C510        C737   1.498       .  S
O511      Al1441   1.963       .  S
O512        C514   1.264       .  A
O512       Al513   1.902       .  S
Al513      O1439   1.965   1_455  S
Al513      O1449   1.914   1_455  S
Al513       O523   1.950       .  S
Al513       O522   1.779       .  S
C514        O527   1.269       .  A
C514        C812   1.493       .  S
O515        C525   1.259       .  A
O515       Al517   1.906       .  S
O516        C529   1.263       .  A
O516       Al526   1.872       .  S
Al517       O530   1.928       .  S
Al517       O527   1.928       .  S
Al517       O522   1.781       .  S
O518        C525   1.257       .  A
O518       Al526   1.910       .  S
O519        C528   1.258       .  A
O519      Al1454   1.915       .  S
O520      Al1454   1.884       .  S
O521        C528   1.261       .  A
O521      Al1441   1.906       .  S
O522       Al526   1.782       .  S
O523        C524   1.267       .  A
C524        C761   1.480       .  S
C525        C776   1.489       .  S
Al526      O1447   1.920   1_455  S
Al526      O1448   1.885       .  S
C528        C752   1.483       .  S
C529        O530   1.268       .  A
C529        C788   1.477       .  S
O531        C546   1.249       .  A
O531       Al539   1.839       .  S
C532        O542   1.263       .  A
C532        O533   1.277       .  A
C532        C689   1.500       .  S
O533       Al535   1.968       .  S
O534        C536   1.252       .  A
O534       Al535   1.855       .  S
Al535       O543   1.863       .  S
Al535       O545   1.953       .  S
Al535       O544   1.775       .  S
C536        O549   1.267       .  A
C536        C749   1.484   1_556  S
O537        C547   1.257       .  A
O537       Al539   1.894       .  S
O538        C551   1.258       .  A
O538       Al548   1.860       .  S
Al539       O552   1.946       .  S
Al539       O549   1.946       .  S
Al539       O544   1.788       .  S
O540        C547   1.263       .  A
O540       Al548   1.918       .  S
O541        C550   1.261       .  A
O541       Al548   1.937       .  S
O542       Al548   1.873       .  S
O543        C550   1.248       .  A
O544       Al548   1.778       .  S
O545        C546   1.269       .  A
C546        C725   1.492       .  S
C547        C716   1.476       .  S
C550        C920   1.484       .  S
C551        O552   1.270       .  A
C551        C701   1.456       .  S
O553        C568   1.245       .  A
O553       Al561   1.837       .  S
C554        O564   1.260   1_565  A
C554        O555   1.279       .  A
C554        C860   1.493       .  S
O556        C558   1.257       .  A
O556       Al557   1.884       .  S
Al557       O567   1.967       .  S
Al557       O566   1.777       .  S
C558        O571   1.265       .  A
C558        C677   1.494       .  S
O559        C569   1.255       .  A
O559       Al561   1.880       .  S
O560        C573   1.258       .  A
O560       Al570   1.872       .  S
Al561       O574   1.937       .  S
Al561       O571   1.928       .  S
Al561       O566   1.785       .  S
O562        C569   1.263       .  A
O562       Al570   1.917       .  S
O563        C572   1.259       .  A
O565        C572   1.250   1_545  A
O566       Al570   1.783       .  S
O567        C568   1.274       .  A
C568        C713   1.496       .  S
C569        C728   1.462       .  S
C572        C668   1.488       .  S
C573        O574   1.266       .  A
C573        C785   1.455       .  S
O575        C590   1.248       .  A
O575       Al583   1.851       .  S
C576        O586   1.270       .  A
C576        O577   1.284       .  A
C576        C800   1.486       .  S
O577       Al579   1.986       .  S
O578        C580   1.261       .  A
O578       Al579   1.895       .  S
Al579       O587   1.914       .  S
Al579       O589   1.949       .  S
Al579       O588   1.778       .  S
C580        O593   1.264       .  A
C580        C653   1.491       .  S
O581        C591   1.253       .  A
O581       Al583   1.905       .  S
O582        C595   1.270       .  A
O582       Al592   1.878       .  S
Al583       O596   1.934       .  S
Al583       O593   1.913       .  S
Al583       O588   1.788       .  S
O584        C591   1.248       .  A
O584       Al592   1.886       .  S
O585        C594   1.250       .  A
O585       Al592   1.908       .  S
O586       Al592   1.875       .  S
O587        C594   1.255       .  A
O588       Al592   1.783       .  S
O589        C590   1.267       .  A
C590        C881   1.495       .  S
C591        C893   1.488       .  S
C594        C680   1.493       .  S
C595        O596   1.274       .  A
C595        C704   1.470       .  S
O597        C612   1.248       .  A
O597       Al605   1.851       .  S
C598        O608   1.262       .  A
C598        O599   1.279       .  A
C598        C740   1.473       .  S
O600        C602   1.261       .  A
O600       Al601   1.887       .  S
Al601       O611   1.950       .  S
Al601       O610   1.780       .  S
C602        O615   1.264       .  A
C602        C641   1.492       .  S
O603        C613   1.253       .  A
O603       Al605   1.886       .  S
O604        C617   1.259       .  A
O604       Al614   1.851       .  S
Al605       O618   1.930       .  S
Al605       O615   1.917       .  S
Al605       O610   1.786       .  S
O606        C613   1.261       .  A
O606       Al614   1.917       .  S
O607        C616   1.257       .  A
O609        C616   1.254       .  A
O610       Al614   1.781       .  S
O611        C612   1.268       .  A
C612        C836   1.494       .  S
C613        C824   1.474       .  S
C616        C656   1.496       .  S
C617        O618   1.268       .  A
C617        C869   1.459       .  S
O619        C634   1.248       .  A
O619       Al627   1.863       .  S
C620        O630   1.267       .  A
C620        O621   1.273       .  A
C620        C692   1.479       .  S
O621       Al623   1.956       .  S
O622        C624   1.264       .  A
O622       Al623   1.889       .  S
Al623       O631   1.902       .  S
Al623       O633   1.942       .  S
Al623       O632   1.774       .  S
C624        O637   1.268       .  A
C624        C665   1.482       .  S
O625        C635   1.258       .  A
O625       Al627   1.897       .  S
O626        C639   1.263       .  A
O626       Al636   1.877       .  S
Al627       O640   1.919       .  S
Al627       O637   1.934       .  S
Al627       O632   1.773       .  S
O628        C635   1.263       .  A
O628       Al636   1.930       .  S
O629        C638   1.264       .  A
O629       Al636   1.931       .  S
O630       Al636   1.897       .  S
O631        C638   1.260       .  A
O632       Al636   1.773       .  S
O633        C634   1.265       .  A
C634        C773   1.463       .  S
C635        C764   1.475       .  S
C638        C644   1.490       .  S
C639        O640   1.264       .  A
C639        C845   1.478       .  S
C641        C642   1.408       .  A
C641        C646   1.418       .  A
C642        C643   1.401       .  A
C642        H651   1.081       .  S
C643        C644   1.414       .  A
C643        S647   1.802       .  S
C644        C645   1.407       .  A
C645        C646   1.402       .  A
C645        H652   1.080       .  S
C646        S648   1.802       .  S
S647        H650   1.408       .  S
S648        H649   1.408       .  S
C653        C654   1.406       .  A
C653        C658   1.415       .  A
C654        C655   1.404       .  A
C654        H663   1.083       .  S
C655        C656   1.419       .  A
C655        S659   1.800       .  S
C656        C657   1.408       .  A
C657        C658   1.406       .  A
C657        H664   1.082       .  S
C658        S660   1.810       .  S
S659        H662   1.407       .  S
S660        H661   1.406       .  S
C665        C666   1.402   1_554  A
C665        C670   1.414   1_554  A
C666        C667   1.395       .  A
C666        H675   1.085   1_556  S
C667        C668   1.418       .  A
C668        C669   1.408       .  A
C669        C670   1.407       .  A
C669        H676   1.084       .  S
C670        S672   1.802       .  S
S671        H674   1.406       .  S
S672        H673   1.407   1_556  S
C677        C678   1.406       .  A
C677        C682   1.418       .  A
C678        C679   1.403       .  A
C678        H687   1.082       .  S
C679        C680   1.420       .  A
C679        S683   1.801       .  S
C680        C681   1.404       .  A
C681        C682   1.401       .  A
C681        H688   1.082       .  S
C682        S684   1.802       .  S
S683        H686   1.408       .  S
S684        H685   1.408       .  S
C689        C690   1.412       .  A
C689        C694   1.420   1_556  A
C690        C691   1.398       .  A
C690        H699   1.084       .  S
C691        C692   1.408   1_556  A
C691        S695   1.806       .  S
C692        C693   1.405       .  A
C693        C694   1.408       .  A
C693        H700   1.084       .  S
C694        S696   1.800       .  S
S695        H698   1.405   1_556  S
S696        H697   1.407       .  S
C701        C702   1.400       .  A
C701        C706   1.404       .  A
C702        C703   1.394       .  A
C702        H711   1.082       .  S
C703        C704   1.413       .  A
C703        S707   1.800       .  S
C704        C705   1.406       .  A
C705        C706   1.397       .  A
C705        H712   1.083       .  S
C706        S708   1.804       .  S
S707        H710   1.405       .  S
S708        H709   1.407       .  S
C713        C714   1.403       .  A
C713        C718   1.432       .  A
C714        C715   1.402       .  A
C714        H723   1.086       .  S
C715        C716   1.415       .  A
C715        S719   1.799       .  S
C716        C717   1.393       .  A
C717        C718   1.399       .  A
C717        H724   1.086       .  S
C718        S720   1.814       .  S
S719        H722   1.406       .  S
S720        H721   1.407       .  S
C725        C726   1.417       .  A
C725        C730   1.413       .  A
C726        C727   1.396       .  A
C726        H735   1.084       .  S
C727       C1656   1.400       .  A
C727        S731   1.803       .  S
C728       C1655   1.399   1_455  A
C728        C729   1.406       .  A
C729       C1658   1.401   1_455  A
C729        H736   1.083       .  S
C730       C1657   1.402       .  A
C730       S1660   1.799       .  S
S731       H1662   1.407       .  S
S732       C1658   1.801       .  S
S732       H1661   1.408       .  S
H733       S1660   1.408       .  S
H734       S1659   1.407   1_455  S
C737        C738   1.410       .  A
C737        C742   1.421       .  A
C738        C739   1.397       .  A
C738        H747   1.083       .  S
C739        C740   1.408       .  A
C740        C741   1.403       .  A
C741        C742   1.407       .  A
C741        H748   1.084       .  S
C742        S744   1.799       .  S
S743        H746   1.407       .  S
S744        H745   1.407       .  S
C749        C750   1.407       .  A
C749        C754   1.411       .  A
C750        C751   1.393       .  A
C750        H759   1.084       .  S
C751        C752   1.412       .  A
C751       S1683   1.804       .  S
C752        C753   1.411       .  A
C753        C754   1.406       .  A
C753        H760   1.083       .  S
C754        S756   1.802       .  S
S755       C1679   1.804       .  S
S755        H758   1.408   1_655  S
S756        H757   1.407       .  S
C761        C762   1.412       .  A
C761        C766   1.409       .  A
C762        C763   1.402       .  A
C762        H771   1.084       .  S
C763        C764   1.406       .  A
C763        S767   1.803       .  S
C764        C765   1.407       .  A
C765        C766   1.404       .  A
C765        H772   1.081       .  S
C766        S768   1.808       .  S
S767        H770   1.404       .  S
S768        H769   1.407       .  S
C773        C774   1.394       .  A
C773        C778   1.412       .  A
C774        H783   1.083       .  S
C775        C776   1.424       .  A
C775        S779   1.810       .  S
C776        C777   1.408       .  A
C777        H784   1.084       .  S
C778        S780   1.804       .  S
S779        H782   1.407       .  S
S780        H781   1.407       .  S
C785        C786   1.398       .  A
C785        C790   1.405       .  A
C786        C787   1.400   1_556  A
C786        H795   1.085       .  S
C787        C788   1.418       .  A
C787        S791   1.810       .  S
C788        C789   1.407       .  A
C789        C790   1.390   1_554  A
C789        H796   1.087       .  S
C790        S792   1.802       .  S
S791        H794   1.407       .  S
S792        H793   1.403       .  S
C797        C798   1.414       .  A
C797        C802   1.423       .  A
C798        C799   1.396       .  A
C798        H807   1.084       .  S
C799        C800   1.408       .  A
C799        S803   1.807       .  S
C800        C801   1.406       .  A
C801        C802   1.414       .  A
C801        H808   1.084       .  S
C802        S804   1.798       .  S
S803        H806   1.408       .  S
S804        H805   1.400       .  S
C809        C810   1.406       .  A
C809        C814   1.416       .  A
C810        C811   1.406       .  A
C810        H819   1.086       .  S
C811        C812   1.417       .  A
C811        S815   1.802       .  S
C812        C813   1.406       .  A
C813        C814   1.402       .  A
C813        H820   1.086       .  S
C814        S816   1.800       .  S
S815        H818   1.407       .  S
S816        H817   1.406       .  S
C821        C822   1.417       .  A
C821       C1754   1.415   1_455  A
C822       C1751   1.394       .  A
C822        H831   1.083       .  S
C823       C1750   1.391       .  A
C823        C824   1.402       .  A
C823        S827   1.804       .  S
C824        C825   1.409       .  A
C825        C826   1.408       .  A
C825        H832   1.084       .  S
C826       C1749   1.414       .  A
C826       S1756   1.798       .  S
S827        H830   1.404       .  S
S828       C1754   1.798       .  S
S828        H829   1.407       .  S
C833        C834   1.396       .  A
C833        C838   1.418       .  A
C834        C835   1.399       .  A
C834        H843   1.084       .  S
C835        C836   1.425       .  A
C835        S839   1.804       .  S
C836        C837   1.401       .  A
C837        C838   1.406       .  A
C837        H844   1.082       .  S
C838        S840   1.804       .  S
S839        H842   1.408       .  S
S840        H841   1.407       .  S
C845        C846   1.407       .  A
C845        C850   1.421       .  A
C846        C847   1.391       .  A
C846        H855   1.080       .  S
C847        C848   1.400       .  A
C847        S851   1.804       .  S
C848        C849   1.396       .  A
C849        C850   1.397       .  A
C849        H856   1.082       .  S
C850        S852   1.801       .  S
S851        H854   1.404       .  S
S852        H853   1.408       .  S
C857        C858   1.397       .  A
C857        C862   1.415       .  A
C858        C859   1.400       .  A
C858       H1795   1.084   1_455  S
C859        C860   1.422       .  A
C859        S863   1.804       .  S
C860        C861   1.405       .  A
C861        C862   1.408       .  A
C861        H868   1.083       .  S
C862        S864   1.799       .  S
S863        H866   1.407       .  S
S864        H865   1.404       .  S
H867       C1786   1.083       .  S
C869        C870   1.404       .  A
C869        C874   1.410       .  A
C870        C871   1.387       .  A
C870        H879   1.086       .  S
C871        C872   1.405       .  A
C871        S875   1.803       .  S
C872        C873   1.398       .  A
C873        C874   1.392       .  A
C873        H880   1.087       .  S
C874        S876   1.797       .  S
S875        H878   1.404       .  S
S876        H877   1.406       .  S
C881        C882   1.403       .  A
C881        C886   1.424       .  A
C882        H891   1.082       .  S
C883        C884   1.419       .  A
C883        S887   1.806       .  S
C884        C885   1.394       .  A
C885        H892   1.084       .  S
C886        S888   1.802       .  S
S887        H890   1.407       .  S
S888        H889   1.406       .  S
C893        C894   1.410       .  A
C893        C898   1.423       .  A
C894        C895   1.409       .  A
C894        H903   1.084       .  S
C895        C896   1.411       .  A
C895        S899   1.803       .  S
C896        C897   1.394       .  A
C897        C898   1.389       .  A
C897        H904   1.086       .  S
C898        S900   1.804       .  S
S899        H902   1.406       .  S
S900        H901   1.408       .  S
C905        C906   1.407       .  A
C905        C910   1.420       .  A
C906        C907   1.404       .  A
C906        H915   1.083       .  S
C907        C908   1.417       .  A
C907        S911   1.799       .  S
C908        C909   1.406       .  A
C909        C910   1.402       .  A
C909        H916   1.082       .  S
C910        S912   1.800       .  S
S911        H914   1.408       .  S
S912       H1841   1.407       .  S
H913       S1840   1.406       .  S
C917        C918   1.399       .  A
C917        C922   1.414       .  A
C918        C919   1.393       .  A
C918        H927   1.086       .  S
C919        C920   1.420       .  A
C919        S923   1.804       .  S
C920        C921   1.405       .  A
C921        C922   1.405       .  A
C921        H928   1.085       .  S
C922        S924   1.801       .  S
S923        H926   1.406       .  S
S924        H925   1.406       .  S
O929        C944   1.249       .  A
O929       Al937   1.869       .  S
C930        O931   1.270       .  A
C930       C1321   1.476       .  S
O932        C934   1.268       .  A
O932       Al933   1.904       .  S
Al933       O943   1.947       .  S
Al933       O942   1.780       .  S
C934        O947   1.268       .  A
C934       C1381   1.497       .  S
O935        C945   1.258       .  A
O935       Al937   1.889       .  S
O936        C949   1.255       .  A
O936       Al946   1.872       .  S
Al937       O950   1.919       .  S
Al937       O947   1.933       .  S
Al937       O942   1.774       .  S
O938        C945   1.267       .  A
O938       Al946   1.924       .  S
O939        C948   1.263       .  A
O940       Al946   1.893       .  S
O941        C948   1.263       .  A
O942       Al946   1.766       .  S
O943        C944   1.265       .  A
C944       C1360   1.461       .  S
C945       C1348   1.477       .  S
C948       C1369   1.494       .  S
C949        O950   1.261       .  A
C949       C1336   1.459       .  S
O951        C966   1.249       .  A
O951       Al959   1.834       .  S
C952        O962   1.265       .  A
C952        O953   1.280       .  A
C952       C1261   1.506       .  S
O953       Al955   1.981       .  S
O954        C956   1.259       .  A
O954       Al955   1.900       .  S
Al955       O963   1.907       .  S
Al955       O965   1.963       .  S
Al955       O964   1.788       .  S
C956        O969   1.260       .  A
C956       C1372   1.491       .  S
O957        C967   1.254       .  A
O957       Al959   1.894       .  S
O958        C971   1.261       .  A
O958       Al968   1.873       .  S
Al959       O972   1.918       .  S
Al959       O969   1.901       .  S
Al959       O964   1.788       .  S
O960        C967   1.258       .  A
O960       Al968   1.914       .  S
O961        C970   1.254       .  A
O961       Al968   1.916       .  S
O962       Al968   1.867       .  S
O963        C970   1.255       .  A
O964       Al968   1.783       .  S
O965        C966   1.270       .  A
C966       C1285   1.501       .  S
C967       C1297   1.475       .  S
C970       C1273   1.494       .  S
C971        O972   1.265       .  A
C971       C1312   1.446       .  S
O973        C988   1.247       .  A
O973       Al981   1.853       .  S
C974        O984   1.269   1_655  A
C974        O975   1.276       .  A
C974       C1201   1.503       .  S
O976        C978   1.262       .  A
O976       Al977   1.886       .  S
Al977       O987   1.958       .  S
Al977       O986   1.774       .  S
C978        O991   1.271       .  A
C978       C1276   1.493       .  S
O979        C989   1.257       .  A
O979       Al981   1.904       .  S
O980        C993   1.260       .  A
O980       Al990   1.859       .  S
Al981       O994   1.938       .  S
Al981       O991   1.938       .  S
Al981       O986   1.774       .  S
O982        C989   1.261       .  A
O982       Al990   1.930       .  S
O983        C992   1.258       .  A
O985        C992   1.260       .  A
O986       Al990   1.778       .  S
O987        C988   1.268       .  A
C988       C1225   1.480       .  S
C989       C1240   1.485       .  S
C992       C1216   1.483       .  S
C993        O994   1.272       .  A
C993       C1252   1.479       .  S
O995       C1010   1.249       .  A
O995      Al1003   1.832       .  S
C996       O1006   1.265       .  A
C996        O997   1.279       .  A
C996       C1153   1.492       .  S
O997       Al999   1.971       .  S
O998       C1000   1.253       .  A
O998       Al999   1.856       .  S
Al999      O1007   1.876       .  S
Al999      O1009   1.946       .  S
Al999      O1008   1.775       .  S
C1000      O1013   1.269       .  A
C1000      C1213   1.488   1_556  S
O1001      C1011   1.258       .  A
O1001     Al1003   1.905       .  S
O1002      C1015   1.261       .  A
O1002     Al1012   1.865       .  S
Al1003     O1016   1.948       .  S
Al1003     O1013   1.949       .  S
Al1003     O1008   1.785       .  S
O1004      C1011   1.261       .  A
O1004     Al1012   1.917       .  S
O1005      C1014   1.260       .  A
O1005     Al1012   1.936       .  S
O1006     Al1012   1.864       .  S
O1007      C1014   1.247       .  A
O1008     Al1012   1.777       .  S
O1009      C1010   1.267       .  A
C1010      C1189   1.492       .  S
C1011      C1180   1.484       .  S
C1014      C1384   1.490       .  S
C1015      O1016   1.273       .  A
C1015      C1165   1.455       .  S
O1017      C1032   1.248       .  A
O1017     Al1025   1.849       .  S
C1018      O1028   1.259       .  A
C1018      O1019   1.274       .  A
C1018      C1324   1.483       .  S
O1019     Al1485   1.961       .  S
O1020      C1022   1.257       .  A
O1020     Al1021   1.890       .  S
Al1021     O1483   1.961   1_545  S
Al1021     O1493   1.882       .  S
Al1021     O1031   1.970       .  S
Al1021     O1030   1.782       .  S
C1022      O1035   1.262       .  A
C1022      C1141   1.490       .  S
O1023      C1033   1.257       .  A
O1023     Al1025   1.884       .  S
O1024      C1037   1.259       .  A
O1024     Al1034   1.876       .  S
Al1025     O1038   1.916       .  S
Al1025     O1035   1.918       .  S
Al1025     O1030   1.787       .  S
O1026      C1033   1.264       .  A
O1026     Al1034   1.919       .  S
O1027      C1036   1.263       .  A
O1027     Al1498   1.933       .  S
O1028     Al1498   1.874       .  S
O1029      C1036   1.253       .  A
O1029     Al1485   1.872       .  S
O1030     Al1034   1.789       .  S
O1031      C1032   1.274       .  A
C1032      C1177   1.501       .  S
C1033      C1192   1.468       .  S
Al1034     O1491   1.930   1_545  S
Al1034     O1492   1.872       .  S
C1036      C1132   1.491       .  S
C1037      O1038   1.261       .  A
C1037      C1249   1.453       .  S
O1039      C1054   1.249       .  A
O1039     Al1047   1.852       .  S
C1040      O1050   1.270       .  A
C1040      O1041   1.284       .  A
C1040      C1264   1.487       .  S
O1041     Al1043   1.983       .  S
O1042      C1044   1.261       .  A
O1042     Al1043   1.898       .  S
Al1043     O1051   1.910       .  S
Al1043     O1053   1.949       .  S
Al1043     O1052   1.778       .  S
C1044      O1057   1.265       .  A
C1044      C1117   1.501       .  S
O1045      C1055   1.254       .  A
O1045     Al1047   1.904       .  S
O1046      C1059   1.270       .  A
O1046     Al1056   1.877       .  S
Al1047     O1060   1.938       .  S
Al1047     O1057   1.922       .  S
Al1047     O1052   1.787       .  S
O1048      C1055   1.248       .  A
O1048     Al1056   1.886       .  S
O1049      C1058   1.248       .  A
O1049     Al1056   1.903       .  S
O1050     Al1056   1.871       .  S
O1051      C1058   1.254       .  A
O1052     Al1056   1.786       .  S
O1053      C1054   1.268       .  A
C1054      C1345   1.494       .  S
C1055      C1357   1.485       .  S
C1058      C1144   1.489       .  S
C1059      O1060   1.274       .  A
C1059      C1168   1.474       .  S
O1061      C1076   1.247       .  A
O1061     Al1069   1.843       .  S
C1062      O1072   1.262   1_545  A
C1062      O1063   1.279       .  A
C1062      C1204   1.479       .  S
O1063     Al1529   1.977   1_545  S
O1064      C1066   1.259       .  A
O1064     Al1065   1.888       .  S
Al1065     O1527   1.970       .  S
Al1065     O1537   1.891       .  S
Al1065     O1075   1.949       .  S
Al1065     O1074   1.779       .  S
C1066      O1079   1.265       .  A
C1066      C1105   1.494       .  S
O1067      C1077   1.253       .  A
O1067     Al1069   1.885       .  S
O1068      C1081   1.260       .  A
O1068     Al1078   1.864       .  S
Al1069     O1082   1.945       .  S
Al1069     O1079   1.927       .  S
Al1069     O1074   1.784       .  S
O1070      C1077   1.262       .  A
O1070     Al1078   1.923       .  S
O1071      C1080   1.260       .  A
O1071     Al1542   1.939   1_545  S
O1072     Al1542   1.868       .  S
O1073      C1080   1.255       .  A
O1073     Al1529   1.898   1_545  S
O1074     Al1078   1.782       .  S
O1075      C1076   1.269       .  A
C1076      C1300   1.493       .  S
C1077      C1288   1.474       .  S
Al1078     O1535   1.936       .  S
Al1078     O1536   1.873       .  S
C1080      C1120   1.506       .  S
C1081      O1082   1.271       .  A
C1081      C1333   1.458       .  S
O1083      C1098   1.249       .  A
O1083     Al1091   1.856       .  S
C1084      O1094   1.267       .  A
C1084      O1085   1.275       .  A
C1084      C1156   1.470       .  S
O1085     Al1087   1.957       .  S
O1086      C1088   1.263       .  A
O1086     Al1087   1.888       .  S
Al1087     O1095   1.917       .  S
Al1087     O1097   1.939       .  S
Al1087     O1096   1.774       .  S
C1088      O1101   1.266       .  A
C1088      C1129   1.489   1_554  S
O1089      C1099   1.258       .  A
O1089     Al1091   1.909       .  S
O1090      C1103   1.265       .  A
O1090     Al1100   1.867       .  S
Al1091     O1104   1.922       .  S
Al1091     O1101   1.927       .  S
Al1091     O1096   1.776       .  S
O1092      C1099   1.260       .  A
O1092     Al1100   1.921       .  S
O1093      C1102   1.261       .  A
O1093     Al1100   1.926       .  S
O1094     Al1100   1.885       .  S
O1095      C1102   1.261       .  A
O1096     Al1100   1.775       .  S
O1097      C1098   1.264       .  A
C1098      C1237   1.464       .  S
C1099      C1228   1.481       .  S
C1102      C1108   1.493       .  S
C1103      O1104   1.267       .  A
C1103      C1309   1.471       .  S
C1105      C1106   1.409       .  A
C1105      C1110   1.417       .  A
C1106      C1107   1.404       .  A
C1106      H1115   1.083       .  S
C1107      C1108   1.414       .  A
C1107      S1111   1.802       .  S
C1108      C1109   1.408       .  A
C1109      C1110   1.403       .  A
C1109      H1116   1.083       .  S
C1110      S1112   1.803       .  S
S1111      H1114   1.407       .  S
S1112      H1113   1.407       .  S
C1117      C1118   1.407       .  A
C1117      C1122   1.418       .  A
C1118      C1119   1.407       .  A
C1118      H1127   1.083       .  S
C1119      C1120   1.420       .  A
C1119      S1123   1.799       .  S
C1120      C1121   1.409       .  A
C1121      C1122   1.408       .  A
C1121      H1128   1.082       .  S
C1122      S1124   1.810       .  S
S1123      H1126   1.408       .  S
S1124      H1125   1.406       .  S
C1129      C1130   1.404       .  A
C1129      C1134   1.416       .  A
C1130      C1131   1.395       .  A
C1130      H1139   1.084       .  S
C1131      C1132   1.419       .  A
C1131      S1599   1.804       .  S
C1132      C1133   1.408       .  A
C1133      C1134   1.406       .  A
C1133      H1140   1.083       .  S
C1134      S1136   1.802       .  S
S1135      C1595   1.805   1_545  S
S1135      H1138   1.408       .  S
S1136      H1137   1.408   1_556  S
C1141      C1142   1.405       .  A
C1141      C1146   1.416       .  A
C1142      C1143   1.401       .  A
C1142      H1151   1.084       .  S
C1143      C1144   1.420       .  A
C1143      S1147   1.800       .  S
C1144      C1145   1.403       .  A
C1145      C1146   1.400       .  A
C1145      H1152   1.084       .  S
C1146      S1148   1.797       .  S
S1147      H1150   1.407       .  S
S1148      H1149   1.408       .  S
C1153      C1154   1.410       .  A
C1153      C1158   1.418   1_556  A
C1154      C1155   1.394       .  A
C1154      H1163   1.083       .  S
C1155      C1156   1.406   1_556  A
C1155      S1159   1.806       .  S
C1156      C1157   1.404       .  A
C1157      C1158   1.406       .  A
C1157      H1164   1.083       .  S
C1158      S1160   1.800       .  S
S1159      H1162   1.403   1_556  S
S1160      H1161   1.407       .  S
C1165      C1166   1.399       .  A
C1165      C1170   1.403       .  A
C1166      C1167   1.397       .  A
C1166      H1175   1.084       .  S
C1167      C1168   1.417       .  A
C1167      S1171   1.802       .  S
C1168      C1169   1.405       .  A
C1169      C1170   1.394       .  A
C1169      H1176   1.083       .  S
C1170      S1172   1.804       .  S
S1171      H1174   1.403       .  S
S1172      H1173   1.407       .  S
C1177      C1178   1.405       .  A
C1177      C1182   1.431       .  A
C1178      C1179   1.406       .  A
C1178      H1187   1.086       .  S
C1179      C1180   1.417       .  A
C1179      S1183   1.799       .  S
C1180      C1181   1.395       .  A
C1181      C1182   1.401       .  A
C1181      H1188   1.086       .  S
C1182      S1184   1.813       .  S
S1183      H1186   1.406       .  S
S1184      H1185   1.407       .  S
C1189      C1190   1.416       .  A
C1189      C1194   1.415       .  A
C1190      C1191   1.391       .  A
C1190      H1199   1.082       .  S
C1191      S1195   1.805       .  S
C1192      C1193   1.408       .  A
C1193      H1200   1.084       .  S
C1201      C1202   1.410       .  A
C1201      C1206   1.423       .  A
C1202      C1203   1.399       .  A
C1202      H1211   1.082       .  S
C1203      C1204   1.409       .  A
C1203      S1671   1.806   1_545  S
C1204      C1205   1.403       .  A
C1205      C1206   1.409       .  A
C1205      H1212   1.083       .  S
C1206      S1208   1.799       .  S
S1207      C1667   1.805       .  S
S1207      H1210   1.406       .  S
S1208      H1209   1.408       .  S
C1213      C1214   1.409       .  A
C1213      C1218   1.412       .  A
C1214      C1215   1.393       .  A
C1214      H1223   1.083       .  S
C1215      C1216   1.411       .  A
C1216      C1217   1.411       .  A
C1217      C1218   1.409       .  A
C1217      H1224   1.082       .  S
C1218      S1220   1.801       .  S
S1219      H1222   1.409       .  S
S1220      H1221   1.407       .  S
C1225      C1226   1.412       .  A
C1225      C1230   1.407       .  A
C1226      C1227   1.407       .  A
C1226      H1235   1.083       .  S
C1227      C1228   1.410       .  A
C1227      S1231   1.804       .  S
C1228      C1229   1.407       .  A
C1229      C1230   1.402       .  A
C1229      H1236   1.081       .  S
C1230      S1232   1.808       .  S
S1231      H1234   1.405       .  S
S1232      H1233   1.407       .  S
C1237      C1238   1.396       .  A
C1237      C1242   1.409       .  A
C1238      C1703   1.396       .  A
C1238      H1247   1.082       .  S
C1239      C1702   1.397   1_545  A
C1239      C1240   1.419       .  A
C1239      S1243   1.803       .  S
C1240      C1241   1.405       .  A
C1241      C1706   1.407   1_545  A
C1241      H1248   1.080       .  S
C1242      C1705   1.406       .  A
C1242      S1244   1.804       .  S
S1243      H1246   1.407       .  S
S1244      H1245   1.406       .  S
C1249      C1250   1.399       .  A
C1249      C1254   1.402       .  A
C1250      C1251   1.402   1_556  A
C1250      H1259   1.081       .  S
C1251      C1252   1.417       .  A
C1251      S1255   1.808       .  S
C1252      C1253   1.409       .  A
C1253      C1254   1.386   1_554  A
C1253      H1260   1.082       .  S
C1254      S1256   1.803       .  S
S1255      H1258   1.407       .  S
S1256      H1257   1.401       .  S
C1261      C1262   1.412       .  A
C1261      C1266   1.422       .  A
C1262      C1263   1.396       .  A
C1262      H1271   1.083       .  S
C1263      C1264   1.411       .  A
C1263      S1267   1.807       .  S
C1264      C1265   1.406       .  A
C1265      C1266   1.413       .  A
C1265      H1272   1.083       .  S
C1266      S1268   1.798       .  S
S1267      H1270   1.408       .  S
S1268      H1269   1.404       .  S
C1273      C1274   1.406       .  A
C1273      C1278   1.419       .  A
C1274      C1275   1.404       .  A
C1274      H1283   1.084       .  S
C1275      C1276   1.418       .  A
C1275      S1279   1.804       .  S
C1276      C1277   1.404       .  A
C1277      C1278   1.402       .  A
C1277      H1284   1.084       .  S
C1278      S1280   1.800       .  S
S1279      H1282   1.408       .  S
S1280      H1281   1.407       .  S
C1285      C1286   1.416       .  A
C1286      H1295   1.084       .  S
C1287      C1288   1.401   1_455  A
C1287      S1291   1.805       .  S
C1288      C1289   1.410       .  A
C1289      C1290   1.408       .  A
C1289      H1296   1.083       .  S
S1291      H1294   1.407   1_455  S
S1292      H1293   1.407       .  S
C1297      C1298   1.395       .  A
C1297      C1302   1.416       .  A
C1298      C1299   1.396       .  A
C1298      H1307   1.084       .  S
C1299      C1300   1.427       .  A
C1299      S1303   1.805       .  S
C1300      C1301   1.403       .  A
C1301      C1302   1.406       .  A
C1301      H1308   1.081       .  S
C1302      S1304   1.805       .  S
S1303      H1306   1.407       .  S
S1304      H1305   1.407       .  S
C1309      C1310   1.406       .  A
C1309      C1314   1.417       .  A
C1310      C1311   1.389       .  A
C1310      H1319   1.084       .  S
C1311      C1312   1.400       .  A
C1311      S1315   1.804       .  S
C1312      C1313   1.397       .  A
C1313      C1314   1.395       .  A
C1313      H1320   1.085       .  S
C1314      S1316   1.801       .  S
S1315      H1318   1.407       .  S
S1316      H1317   1.408       .  S
C1321      C1322   1.399       .  A
C1321      C1326   1.413       .  A
C1322      C1323   1.402       .  A
C1323      C1324   1.418       .  A
C1323      S1327   1.802       .  S
C1324      C1325   1.400       .  A
C1325      C1326   1.402       .  A
C1325      H1332   1.087       .  S
C1326      S1328   1.800       .  S
S1327      H1330   1.406       .  S
S1328      H1329   1.405       .  S
C1333      C1334   1.402       .  A
C1333      C1338   1.408       .  A
C1334      C1335   1.393       .  A
C1334      H1343   1.085       .  S
C1335      C1336   1.408       .  A
C1335      S1339   1.802       .  S
C1336      C1337   1.402       .  A
C1337      C1338   1.394       .  A
C1337      H1344   1.085       .  S
C1338      S1340   1.799       .  S
S1339      H1342   1.406       .  S
S1340      H1341   1.405       .  S
C1345      C1346   1.402   1_545  A
C1345      C1350   1.423       .  A
C1346      C1811   1.410       .  A
C1346      H1355   1.082       .  S
C1347      C1810   1.409       .  A
C1347      C1348   1.418       .  A
C1347      S1351   1.806       .  S
C1348      C1349   1.393       .  A
C1349      C1814   1.392       .  A
C1349      H1356   1.084       .  S
C1350      C1813   1.395   1_545  A
C1350      S1352   1.799       .  S
S1351      H1354   1.407       .  S
S1352      H1353   1.405       .  S
C1357      C1358   1.407       .  A
C1357      C1362   1.424       .  A
C1358      C1359   1.406       .  A
C1358      H1367   1.086       .  S
C1359      C1360   1.411       .  A
C1359      S1363   1.803       .  S
C1360      C1361   1.393       .  A
C1361      C1362   1.389       .  A
C1361      H1368   1.088       .  S
C1362      S1364   1.804       .  S
S1363      H1366   1.407       .  S
S1364      H1365   1.408       .  S
C1369      C1370   1.407       .  A
C1369      C1374   1.420       .  A
C1370      C1371   1.403       .  A
C1370      H1379   1.084       .  S
C1371      C1372   1.415       .  A
C1371      S1375   1.801       .  S
C1372      C1373   1.405       .  A
C1373      C1374   1.400       .  A
C1373      H1380   1.085       .  S
C1374      S1376   1.801       .  S
S1375      H1378   1.408       .  S
C1381      C1382   1.407       .  A
C1381      C1386   1.421       .  A
C1382      C1383   1.404       .  A
C1382      H1391   1.084       .  S
C1383      C1384   1.419       .  A
C1383      S1387   1.810       .  S
C1384      C1385   1.403       .  A
C1385      C1386   1.400       .  A
C1385      H1392   1.086       .  S
C1386      S1388   1.802       .  S
S1387      H1390   1.407       .  S
S1388      H1389   1.408       .  S
O1393      C1408   1.248       .  A
O1393     Al1401   1.870       .  S
C1394      O1395   1.270       .  A
C1394      C1785   1.476       .  S
O1396      C1398   1.267       .  A
O1396     Al1397   1.898       .  S
Al1397     O1407   1.950       .  S
Al1397     O1406   1.778       .  S
C1398      O1411   1.270       .  A
C1398      C1845   1.499       .  S
O1399      C1409   1.258       .  A
O1399     Al1401   1.888       .  S
O1400      C1413   1.256       .  A
O1400     Al1410   1.876       .  S
Al1401     O1414   1.919       .  S
Al1401     O1411   1.946       .  S
Al1401     O1406   1.774       .  S
O1402      C1409   1.269       .  A
O1402     Al1410   1.937       .  S
O1403      C1412   1.265       .  A
O1404     Al1410   1.900       .  S
O1405      C1412   1.263       .  A
O1406     Al1410   1.767       .  S
O1407      C1408   1.266       .  A
C1408      C1824   1.463       .  S
C1409      C1812   1.481       .  S
C1412      C1833   1.497       .  S
C1413      O1414   1.262       .  A
C1413      C1800   1.456       .  S
O1415      C1430   1.248       .  A
O1415     Al1423   1.828       .  S
C1416      O1426   1.265       .  A
C1416      O1417   1.279       .  A
C1416      C1725   1.503       .  S
O1417     Al1419   1.976       .  S
O1418      C1420   1.262       .  A
O1418     Al1419   1.910       .  S
Al1419     O1427   1.907       .  S
Al1419     O1429   1.958       .  S
Al1419     O1428   1.789       .  S
C1420      O1433   1.262       .  A
C1420      C1836   1.497       .  S
O1421      C1431   1.255       .  A
O1421     Al1423   1.894       .  S
O1422      C1435   1.259       .  A
O1422     Al1432   1.868       .  S
Al1423     O1436   1.923       .  S
Al1423     O1433   1.907       .  S
Al1423     O1428   1.785       .  S
O1424      C1431   1.261       .  A
O1424     Al1432   1.926       .  S
O1425      C1434   1.257       .  A
O1425     Al1432   1.925       .  S
O1426     Al1432   1.867       .  S
O1427      C1434   1.256       .  A
O1428     Al1432   1.782       .  S
O1429      C1430   1.268       .  A
C1430      C1749   1.496       .  S
C1431      C1761   1.480       .  S
C1434      C1737   1.495       .  S
C1435      O1436   1.265       .  A
C1435      C1776   1.448       .  S
O1437      C1452   1.248       .  A
O1437     Al1445   1.852       .  S
C1438      O1448   1.268   1_655  A
C1438      O1439   1.276       .  A
C1438      C1665   1.498       .  S
O1440      C1442   1.263       .  A
O1440     Al1441   1.893       .  S
Al1441     O1451   1.952       .  S
Al1441     O1450   1.778       .  S
C1442      O1455   1.272       .  A
C1442      C1740   1.496       .  S
O1443      C1453   1.258       .  A
O1443     Al1445   1.899       .  S
O1444      C1457   1.263       .  A
O1444     Al1454   1.879       .  S
Al1445     O1458   1.944       .  S
Al1445     O1455   1.946       .  S
Al1445     O1450   1.775       .  S
O1446      C1453   1.259       .  A
O1446     Al1454   1.914       .  S
O1447      C1456   1.257       .  A
O1449      C1456   1.261       .  A
O1450     Al1454   1.776       .  S
O1451      C1452   1.268       .  A
C1452      C1689   1.475       .  S
C1453      C1704   1.487       .  S
C1456      C1680   1.491       .  S
C1457      O1458   1.271       .  A
C1457      C1716   1.485       .  S
O1459      C1474   1.250       .  A
O1459     Al1467   1.836       .  S
C1460      O1470   1.264       .  A
C1460      O1461   1.275       .  A
C1460      C1617   1.495       .  S
O1461     Al1463   1.961       .  S
O1462      C1464   1.255       .  A
O1462     Al1463   1.868       .  S
Al1463     O1471   1.876       .  S
Al1463     O1473   1.937       .  S
Al1463     O1472   1.773       .  S
C1464      O1477   1.269       .  A
C1464      C1677   1.494   1_556  S
O1465      C1475   1.259       .  A
O1465     Al1467   1.901       .  S
O1466      C1479   1.260       .  A
O1466     Al1476   1.865       .  S
Al1467     O1480   1.946       .  S
Al1467     O1477   1.953       .  S
Al1467     O1472   1.787       .  S
O1468      C1475   1.262       .  A
O1468     Al1476   1.912       .  S
O1469      C1478   1.262       .  A
O1469     Al1476   1.944       .  S
O1470     Al1476   1.869       .  S
O1471      C1478   1.248       .  A
O1472     Al1476   1.778       .  S
O1473      C1474   1.266       .  A
C1474      C1653   1.486       .  S
C1475      C1644   1.477       .  S
C1478      C1848   1.497       .  S
C1479      O1480   1.271       .  A
C1479      C1629   1.455       .  S
O1481      C1496   1.246       .  A
O1481     Al1489   1.840       .  S
C1482      O1492   1.260   1_565  A
C1482      O1483   1.275       .  A
C1482      C1788   1.482       .  S
O1484      C1486   1.256       .  A
O1484     Al1485   1.883       .  S
Al1485     O1495   1.971       .  S
Al1485     O1494   1.782       .  S
C1486      O1499   1.267       .  A
C1486      C1605   1.494       .  S
O1487      C1497   1.257       .  A
O1487     Al1489   1.882       .  S
O1488      C1501   1.258       .  A
O1488     Al1498   1.874       .  S
Al1489     O1502   1.937       .  S
Al1489     O1499   1.938       .  S
Al1489     O1494   1.783       .  S
O1490      C1497   1.265       .  A
O1490     Al1498   1.926       .  S
O1491      C1500   1.261       .  A
O1493      C1500   1.255   1_545  A
O1494     Al1498   1.784       .  S
O1495      C1496   1.274       .  A
C1496      C1641   1.496       .  S
C1497      C1656   1.469       .  S
C1500      C1596   1.487       .  S
C1501      O1502   1.265       .  A
C1501      C1713   1.466       .  S
O1503      C1518   1.249       .  A
O1503     Al1511   1.853       .  S
C1504      O1514   1.271       .  A
C1504      O1505   1.283       .  A
C1504      C1728   1.478       .  S
O1505     Al1507   1.975       .  S
O1506      C1508   1.261       .  A
O1506     Al1507   1.898       .  S
Al1507     O1515   1.914       .  S
Al1507     O1517   1.939       .  S
Al1507     O1516   1.778       .  S
C1508      O1521   1.265       .  A
C1508      C1581   1.494       .  S
O1509      C1519   1.253       .  A
O1509     Al1511   1.906       .  S
O1510      C1523   1.271       .  A
O1510     Al1520   1.876       .  S
Al1511     O1524   1.936       .  S
Al1511     O1521   1.915       .  S
Al1511     O1516   1.786       .  S
O1512      C1519   1.247       .  A
O1512     Al1520   1.886       .  S
O1513      C1522   1.248       .  A
O1513     Al1520   1.904       .  S
O1514     Al1520   1.872       .  S
O1515      C1522   1.254       .  A
O1516     Al1520   1.782       .  S
O1517      C1518   1.265       .  A
C1518      C1809   1.493       .  S
C1519      C1821   1.487       .  S
C1522      C1608   1.490       .  S
C1523      O1524   1.274       .  A
C1523      C1632   1.472       .  S
O1525      C1540   1.248       .  A
O1525     Al1533   1.846       .  S
C1526      O1536   1.263       .  A
C1526      O1527   1.277       .  A
C1526      C1668   1.475       .  S
O1528      C1530   1.261       .  A
O1528     Al1529   1.894       .  S
Al1529     O1539   1.954       .  S
Al1529     O1538   1.784       .  S
C1530      O1543   1.264       .  A
C1530      C1569   1.498       .  S
O1531      C1541   1.253       .  A
O1531     Al1533   1.891       .  S
O1532      C1545   1.260       .  A
O1532     Al1542   1.855       .  S
Al1533     O1546   1.946       .  S
Al1533     O1543   1.923       .  S
Al1533     O1538   1.788       .  S
O1534      C1541   1.261       .  A
O1534     Al1542   1.923       .  S
O1535      C1544   1.260       .  A
O1537      C1544   1.255       .  A
O1538     Al1542   1.784       .  S
O1539      C1540   1.269       .  A
C1540      C1764   1.495       .  S
C1541      C1752   1.480       .  S
C1544      C1584   1.499       .  S
C1545      O1546   1.272       .  A
C1545      C1797   1.459       .  S
O1547      C1562   1.249       .  A
O1547     Al1555   1.862       .  S
C1548      O1558   1.265       .  A
C1548      O1549   1.274       .  A
C1548      C1620   1.473       .  S
O1549     Al1551   1.956       .  S
O1550      C1552   1.261       .  A
O1550     Al1551   1.885       .  S
Al1551     O1559   1.906       .  S
Al1551     O1561   1.938       .  S
Al1551     O1560   1.773       .  S
C1552      O1565   1.268       .  A
C1552      C1593   1.482   1_554  S
O1553      C1563   1.259       .  A
O1553     Al1555   1.903       .  S
O1554      C1567   1.264       .  A
O1554     Al1564   1.867       .  S
Al1555     O1568   1.929       .  S
Al1555     O1565   1.938       .  S
Al1555     O1560   1.776       .  S
O1556      C1563   1.262       .  A
O1556     Al1564   1.922       .  S
O1557      C1566   1.264       .  A
O1557     Al1564   1.934       .  S
O1558     Al1564   1.882       .  S
O1559      C1566   1.259       .  A
O1560     Al1564   1.774       .  S
O1561      C1562   1.265       .  A
C1562      C1701   1.465       .  S
C1563      C1692   1.477       .  S
C1566      C1572   1.496       .  S
C1567      O1568   1.267       .  A
C1567      C1773   1.475       .  S
C1569      C1570   1.409       .  A
C1569      C1574   1.419       .  A
C1570      C1571   1.405       .  A
C1570      H1579   1.081       .  S
C1571      C1572   1.417       .  A
C1571      S1575   1.803       .  S
C1572      C1573   1.407       .  A
C1573      C1574   1.403       .  A
C1573      H1580   1.081       .  S
C1574      S1576   1.802       .  S
S1575      H1578   1.408       .  S
S1576      H1577   1.407       .  S
C1581      C1582   1.407       .  A
C1581      C1586   1.416       .  A
C1582      C1583   1.405       .  A
C1582      H1591   1.083       .  S
C1583      C1584   1.419       .  A
C1583      S1587   1.800       .  S
C1584      C1585   1.408       .  A
C1585      C1586   1.405       .  A
C1585      H1592   1.082       .  S
C1586      S1588   1.810       .  S
S1587      H1590   1.408       .  S
S1588      H1589   1.406       .  S
C1593      C1594   1.403       .  A
C1593      C1598   1.413       .  A
C1594      C1595   1.395       .  A
C1594      H1603   1.084   1_556  S
C1595      C1596   1.415       .  A
C1596      C1597   1.410       .  A
C1597      C1598   1.409       .  A
C1597      H1604   1.083       .  S
C1598      S1600   1.803       .  S
S1599      H1602   1.408       .  S
S1600      H1601   1.407       .  S
C1605      C1606   1.405       .  A
C1605      C1610   1.419       .  A
C1606      C1607   1.402       .  A
C1606      H1615   1.082       .  S
C1607      C1608   1.420       .  A
C1607      S1611   1.800       .  S
C1608      C1609   1.402       .  A
C1609      C1610   1.401       .  A
C1609      H1616   1.083       .  S
C1610      S1612   1.799       .  S
S1611      H1614   1.407       .  S
S1612      H1613   1.408       .  S
C1617      C1618   1.411       .  A
C1617      C1622   1.420   1_556  A
C1618      C1619   1.395   1_556  A
C1618      H1627   1.081       .  S
C1619      C1620   1.407       .  A
C1619      S1623   1.806   1_554  S
C1620      C1621   1.403       .  A
C1621      C1622   1.406       .  A
C1621      H1628   1.081       .  S
C1622      S1624   1.800       .  S
S1623      H1626   1.406   1_556  S
S1624      H1625   1.408       .  S
C1629      C1630   1.399       .  A
C1629      C1634   1.404       .  A
C1630      C1631   1.395       .  A
C1630      H1639   1.085       .  S
C1631      C1632   1.416       .  A
C1631      S1635   1.802       .  S
C1632      C1633   1.406       .  A
C1633      C1634   1.395       .  A
C1633      H1640   1.083       .  S
C1634      S1636   1.805       .  S
S1635      H1638   1.401       .  S
S1636      H1637   1.407       .  S
C1641      C1642   1.405       .  A
C1641      C1646   1.431       .  A
C1642      C1643   1.404       .  A
C1642      H1651   1.083       .  S
C1643      C1644   1.416       .  A
C1643      S1647   1.799       .  S
C1644      C1645   1.394       .  A
C1645      C1646   1.398       .  A
C1645      H1652   1.084       .  S
C1646      S1648   1.814       .  S
S1647      H1650   1.406       .  S
S1648      H1649   1.407       .  S
C1653      C1654   1.415       .  A
C1653      C1658   1.413       .  A
C1654      C1655   1.393       .  A
C1654      H1663   1.083       .  S
C1655      S1659   1.804       .  S
C1656      C1657   1.407       .  A
C1657      H1664   1.084       .  S
C1665      C1666   1.410       .  A
C1665      C1670   1.420       .  A
C1666      C1667   1.398       .  A
C1666      H1675   1.083       .  S
C1667      C1668   1.408       .  A
C1668      C1669   1.403       .  A
C1669      C1670   1.407       .  A
C1669      H1676   1.083       .  S
C1670      S1672   1.798       .  S
S1671      H1674   1.407       .  S
S1672      H1673   1.407       .  S
C1677      C1678   1.409       .  A
C1677      C1682   1.414       .  A
C1678      C1679   1.397       .  A
C1678      H1687   1.084       .  S
C1679      C1680   1.413       .  A
C1680      C1681   1.412       .  A
C1681      C1682   1.411       .  A
C1681      H1688   1.083       .  S
C1682      S1684   1.801       .  S
S1683      H1686   1.408       .  S
S1684      H1685   1.407       .  S
C1689      C1690   1.410       .  A
C1689      C1694   1.405       .  A
C1690      C1691   1.405       .  A
C1690      H1699   1.085       .  S
C1691      C1692   1.411       .  A
C1691      S1695   1.806       .  S
C1692      C1693   1.406       .  A
C1693      C1694   1.399       .  A
C1693      H1700   1.081       .  S
C1694      S1696   1.807       .  S
S1695      H1698   1.399       .  S
S1696      H1697   1.407       .  S
C1701      C1702   1.394       .  A
C1701      C1706   1.413       .  A
C1702      H1711   1.081       .  S
C1703      C1704   1.422       .  A
C1703      S1707   1.812       .  S
C1704      C1705   1.408       .  A
C1705      H1712   1.082       .  S
C1706      S1708   1.804       .  S
S1707      H1710   1.407       .  S
S1708      H1709   1.407       .  S
C1713      C1714   1.401       .  A
C1713      C1718   1.406       .  A
C1714      C1715   1.407   1_556  A
C1714      H1723   1.083       .  S
C1715      C1716   1.418       .  A
C1715      S1719   1.807       .  S
C1716      C1717   1.407       .  A
C1717      C1718   1.390   1_554  A
C1717      H1724   1.084       .  S
C1718      S1720   1.803       .  S
S1719      H1722   1.407       .  S
S1720      H1721   1.405       .  S
C1725      C1726   1.413       .  A
C1725      C1730   1.422       .  A
C1726      C1727   1.394       .  A
C1726      H1735   1.084       .  S
C1727      C1728   1.407       .  A
C1727      S1731   1.807       .  S
C1728      C1729   1.404       .  A
C1729      C1730   1.410       .  A
C1729      H1736   1.084       .  S
C1730      S1732   1.799       .  S
S1731      H1734   1.408       .  S
S1732      H1733   1.401       .  S
C1737      C1738   1.406       .  A
C1737      C1742   1.418       .  A
C1738      C1739   1.406       .  A
C1738      H1747   1.084       .  S
C1739      C1740   1.418       .  A
C1739      S1743   1.803       .  S
C1740      C1741   1.405       .  A
C1741      C1742   1.403       .  A
C1741      H1748   1.084       .  S
C1742      S1744   1.799       .  S
S1743      H1746   1.408       .  S
S1744      H1745   1.407       .  S
C1749      C1750   1.416       .  A
C1750      H1759   1.083       .  S
C1751      C1752   1.402   1_455  A
C1751      S1755   1.804       .  S
C1752      C1753   1.410       .  A
C1753      C1754   1.411       .  A
C1753      H1760   1.083       .  S
S1755      H1758   1.406   1_455  S
S1756      H1757   1.408       .  S
C1761      C1762   1.395       .  A
C1761      C1766   1.418       .  A
C1762      C1763   1.398       .  A
C1762      H1771   1.085       .  S
C1763      C1764   1.426       .  A
C1763      S1767   1.804       .  S
C1764      C1765   1.403       .  A
C1765      C1766   1.408       .  A
C1765      H1772   1.083       .  S
C1766      S1768   1.804       .  S
S1767      H1770   1.407       .  S
S1768      H1769   1.407       .  S
C1773      C1774   1.407       .  A
C1773      C1778   1.418       .  A
C1774      C1775   1.391       .  A
C1774      H1783   1.083       .  S
C1775      C1776   1.401       .  A
C1775      S1779   1.805       .  S
C1776      C1777   1.397       .  A
C1777      C1778   1.396       .  A
C1777      H1784   1.084       .  S
C1778      S1780   1.800       .  S
S1779      H1782   1.407       .  S
S1780      H1781   1.407       .  S
C1785      C1786   1.400       .  A
C1785      C1790   1.412       .  A
C1786      C1787   1.403       .  A
C1787      C1788   1.417       .  A
C1787      S1791   1.802       .  S
C1788      C1789   1.400       .  A
C1789      C1790   1.402       .  A
C1789      H1796   1.072       .  S
C1790      S1792   1.800       .  S
S1791      H1794   1.406       .  S
S1792      H1793   1.405       .  S
C1797      C1798   1.401       .  A
C1797      C1802   1.409       .  A
C1798      C1799   1.390       .  A
C1798      H1807   1.086       .  S
C1799      C1800   1.407       .  A
C1799      S1803   1.799       .  S
C1800      C1801   1.401       .  A
C1801      C1802   1.395       .  A
C1801      H1808   1.085       .  S
C1802      S1804   1.796       .  S
S1803      H1806   1.405       .  S
S1804      H1805   1.406       .  S
C1809      C1810   1.404       .  A
C1809      C1814   1.423       .  A
C1810      H1819   1.082       .  S
C1811      C1812   1.420       .  A
C1811      S1815   1.807       .  S
C1812      C1813   1.394       .  A
C1813      H1820   1.084   1_565  S
C1814      S1816   1.798       .  S
S1815      H1818   1.406       .  S
S1816      H1817   1.405       .  S
C1821      C1822   1.407       .  A
C1821      C1826   1.425       .  A
C1822      C1823   1.407       .  A
C1822      H1831   1.085       .  S
C1823      C1824   1.412       .  A
C1823      S1827   1.804       .  S
C1824      C1825   1.393       .  A
C1825      C1826   1.394       .  A
C1825      H1832   1.086       .  S
C1826      S1828   1.814       .  S
S1827      H1830   1.406       .  S
S1828      H1829   1.406       .  S
C1833      C1834   1.408       .  A
C1833      C1838   1.419       .  A
C1834      C1835   1.404       .  A
C1834      H1843   1.082       .  S
C1835      C1836   1.416       .  A
C1835      S1839   1.799       .  S
C1836      C1837   1.407       .  A
C1837      C1838   1.402       .  A
C1837      H1844   1.082       .  S
C1838      S1840   1.801       .  S
S1839      H1842   1.408       .  S
C1845      C1846   1.406       .  A
C1845      C1850   1.419       .  A
C1846      C1847   1.402       .  A
C1846      H1855   1.082       .  S
C1847      C1848   1.421       .  A
C1847      S1851   1.811       .  S
C1848      C1849   1.407       .  A
C1849      C1850   1.405       .  A
C1849      H1856   1.084       .  S
C1850      S1852   1.801       .  S
S1851      H1854   1.407       .  S
S1852      H1853   1.408       .  S
