geometry optimzed in LAMMPS
_audit_creation_date              2020-12-01 
_audit_creation_method            'lammps2cif' 
_symmetry_space_group_name_H-M    'P1' 
_symmetry_Int_Tables_number       1 
_symmetry_cell_setting            triclinic 
loop_ 
_symmetry_equiv_pos_as_xyz 
  x,y,z 
_cell_length_a                    28.69171548 
_cell_length_b                    28.693095862825654 
_cell_length_c                    43.78924386560391 
_cell_angle_alpha                 89.9075043677829 
_cell_angle_beta                  90.09385217555213 
_cell_angle_gamma                 90.0848222423151 
loop_ 
_atom_site_label 
_atom_site_type_symbol 
_atom_site_fract_x 
_atom_site_fract_y 
_atom_site_fract_z 
_atom_site_charge 
O1          O  0.13992619  0.08748809  0.63560452    -0.85100
O2          O  0.16132977  0.04538907  0.68894506    -0.82100
C3          C  0.15878737  0.03305196  0.71638144     0.98400
O4          O  0.11938912  0.03000163  0.72910154    -0.82100
O5          O  0.07818252  0.11882090  0.73013052    -0.84800
C6          C  0.05622988  0.15414194  0.72059532     1.02900
O7          O  0.03222672  0.15184228  0.69640680    -0.77600
O8          O  0.09979011  0.14738952  0.65285176    -0.77700
C9          C  0.13604416  0.13095567  0.64067444     1.02900
O10         O  0.06783239  0.01580074  0.62596489    -0.85100
O11         O  0.09281861  0.97231200  0.67854577    -0.82100
C12         C  0.05586342  0.96232659  0.69314310     0.98400
O13         O  0.03348869  0.99370506  0.70678586    -0.82200
O14         O  0.99040257  0.07722004  0.71426226    -0.84800
C15         C  0.96335627  0.07610721  0.69140205     1.02900
O16         O  0.97962848  0.08138719  0.66479639    -0.77600
O17         O  0.04386091  0.08648471  0.61711352    -0.77700
C18         C  0.04800016  0.04469432  0.60877959     1.02800
Cr19       Cr  0.11212457  0.03299877  0.65870172     1.93700
Cr20       Cr  0.05688464  0.05595414  0.71706841     1.93200
Cr21       Cr  0.04100988  0.11308031  0.65915618     1.39100
O22         O  0.07051369  0.06734533  0.67827457    -1.22800
O23         O  0.37169912  0.41822798  0.66056516    -0.85100
O24         O  0.37812527  0.49240364  0.70059656    -0.82100
C25         C  0.37724598  0.47043177  0.72566339     0.98400
O26         O  0.41044446  0.44391267  0.73283014    -0.82100
O27         O  0.49368600  0.39541683  0.72960770    -0.84800
C28         C  0.48468047  0.35591669  0.71845376     1.02900
O29         O  0.47189779  0.35258084  0.69105626    -0.77600
O30         O  0.42625136  0.37576483  0.63901215    -0.77700
C31         C  0.38406052  0.38098063  0.64737728     1.02900
O32         O  0.43056036  0.46511949  0.61815689    -0.85100
O33         O  0.44860714  0.53397750  0.66238671    -0.82100
C34         C  0.46246632  0.55047125  0.68768662     0.98400
O35         O  0.45815313  0.52647885  0.71176661    -0.82200
O36         O  0.53614657  0.47597169  0.70359024    -0.84800
C37         C  0.56436473  0.44874760  0.69099099     1.02900
O38         O  0.54990515  0.41310302  0.67654313    -0.77600
O39         O  0.50192870  0.44063794  0.62418348    -0.77700
C40         C  0.47056400  0.45748590  0.60730283     1.02800
Cr41       Cr  0.41064763  0.47534505  0.66158287     1.93700
Cr42       Cr  0.47318658  0.45901874  0.71666081     1.93200
Cr43       Cr  0.48550364  0.39912501  0.65909422     1.39100
O44         O  0.45670792  0.44414555  0.67906977    -1.22800
O45         O  0.57537255  0.63840387  0.33613396    -0.85100
O46         O  0.50371710  0.64174020  0.29581774    -0.82100
C47         C  0.52366474  0.64229041  0.26998836     0.98400
O48         O  0.54477747  0.60662306  0.26038362    -0.82100
O49         O  0.58760670  0.51913472  0.26055575    -0.84800
C50         C  0.62844174  0.52634101  0.27037543     1.02900
O51         O  0.63431808  0.53980981  0.29742630    -0.77600
O52         O  0.61828065  0.58034456  0.35284245    -0.77700
C53         C  0.61303032  0.62360615  0.34734946     1.02900
O54         O  0.52422091  0.57609248  0.37551128    -0.85100
O55         O  0.45492695  0.57127970  0.33086915    -0.82100
C56         C  0.43590558  0.56531214  0.30513125     0.98400
O57         O  0.46037056  0.56513610  0.28117243    -0.82200
O58         O  0.50520300  0.48139788  0.28785800    -0.84800
C59         C  0.53287135  0.45106865  0.29809574     1.02900
O60         O  0.57089787  0.46319826  0.31093875    -0.77600
O61         O  0.55090182  0.50636266  0.36598599    -0.77700
C62         C  0.53269844  0.53487051  0.38427575     1.02800
Cr63       Cr  0.51661169  0.60315251  0.33323843     1.93700
Cr64       Cr  0.52618351  0.54417561  0.27551290     1.93200
Cr65       Cr  0.58989515  0.52489892  0.33056088     1.39100
O66         O  0.54439731  0.55729975  0.31325504    -1.22800
O67         O  0.90022786  0.87164459  0.36725220    -0.85100
O68         O  0.93645914  0.84950670  0.31226747    -0.82100
C69         C  0.94504608  0.85282695  0.28422438     0.98400
O70         O  0.95059595  0.89254906  0.27225943    -0.82100
O71         O  0.86599637  0.93995595  0.27498678    -0.84800
C72         C  0.83322596  0.96483456  0.28505143     1.02900
O73         O  0.83833605  0.98656883  0.30993354    -0.77600
O74         O  0.84168718  0.91464753  0.35099727    -0.77700
C75         C  0.85679023  0.87711151  0.36237366     1.02900
O76         O  0.97712567  0.93851668  0.37582901    -0.85100
O77         O  0.01514808  0.91274925  0.32102511    -0.82100
C78         C  0.02637902  0.94924917  0.30619759     0.98400
O79         O  0.99540244  0.97466847  0.29456046    -0.82200
O80         O  0.91490352  0.02357685  0.29154836    -0.84800
C81         C  0.91813553  0.04936133  0.31491099     1.02900
O82         O  0.91350251  0.03204596  0.34133863    -0.77600
O83         O  0.90776479  0.96394934  0.38721809    -0.77700
C84         C  0.94977862  0.95726436  0.39452617     1.02800
Cr85       Cr  0.95476192  0.89671629  0.34280850     1.93700
Cr86       Cr  0.93090465  0.95616246  0.28634189     1.93200
Cr87       Cr  0.87878532  0.97204803  0.34597185     1.39100
O88         O  0.92169904  0.94135999  0.32508122    -1.22800
O89         O  0.89591247  0.59368854  0.86043436    -0.85100
O90         O  0.87203887  0.55310280  0.80663655    -0.82100
C91         C  0.87470780  0.53935943  0.77948093     0.98400
O92         O  0.91422137  0.53053840  0.76814280    -0.82100
O93         O  0.96238861  0.61563489  0.76695145    -0.84800
C94         C  0.98660868  0.64960591  0.77624921     1.02900
O95         O  0.01083985  0.64578861  0.80036462    -0.77600
O96         O  0.94165251  0.64890127  0.84263774    -0.77700
C97         C  0.90329973  0.63636237  0.85417751     1.02900
O98         O  0.95889279  0.51575103  0.87208188    -0.85100
O99         O  0.93234767  0.47363455  0.81905520    -0.82100
C100        C  0.96955446  0.46012579  0.80609949     0.98400
O101        O  0.99625362  0.48867572  0.79311077    -0.82200
O102        O  0.04563239  0.56804291  0.78492146    -0.84800
C103        C  0.07092275  0.56103905  0.80810201     1.02900
O104        O  0.05540484  0.57107058  0.83431184    -0.77600
O105        O  0.99014906  0.58364640  0.88095218    -0.77700
C106        C  0.97940385  0.54315838  0.88996893     1.02800
Cr107      Cr  0.91836595  0.53632363  0.83817695     1.93700
Cr108      Cr  0.97821862  0.55190657  0.78105756     1.93200
Cr109      Cr  0.99732353  0.60904311  0.83832335     1.39100
O110        O  0.96418888  0.56578308  0.81929263    -1.22800
O111        O  0.64150413  0.90853048  0.85426915    -0.85100
O112        O  0.66142156  0.95500395  0.80127127    -0.82100
C113        C  0.65653456  0.97072806  0.77459568     0.98400
O114        O  0.61614747  0.97858074  0.76427420    -0.82100
O115        O  0.56936117  0.89309171  0.76080958    -0.84800
C116        C  0.54443882  0.85866525  0.76826537     1.02900
O117        O  0.52429548  0.85778764  0.79399560    -0.77600
O118        O  0.59813731  0.85338412  0.83419647    -0.77700
C119        C  0.63590181  0.86614361  0.84649785     1.02900
O120        O  0.57620084  0.98314509  0.86991223    -0.85100
O121        O  0.60019862  0.03083374  0.81772163    -0.82100
C122        C  0.56318794  0.04514442  0.80483448     0.98400
O123        O  0.53542123  0.01701847  0.79240448    -0.82200
O124        O  0.48662662  0.93779170  0.78323145    -0.84800
C125        C  0.46283238  0.93884813  0.80748898     1.02900
O126        O  0.48053818  0.92611757  0.83257868    -0.77600
O127        O  0.54952177  0.91265710  0.87637579    -0.77700
C128        C  0.55587369  0.95346657  0.88644693     1.02800
Cr129      Cr  0.61620507  0.96703936  0.83444827     1.93700
Cr130      Cr  0.55353487  0.95503069  0.77800051     1.93200
Cr131      Cr  0.54043511  0.89100070  0.83306830     1.39100
O132        O  0.57035316  0.93781662  0.81523045    -1.22800
O133        O  0.07810206  0.35454234  0.15859645    -0.85100
O134        O  0.00653260  0.34852501  0.19933721    -0.82100
C135        C  0.02539306  0.34846650  0.22556820     0.98400
O136        O  0.04474451  0.38478135  0.23592265    -0.82100
O137        O  0.08451911  0.47425405  0.23670236    -0.84800
C138        C  0.12579237  0.46787618  0.22766676     1.02900
O139        O  0.13303127  0.45390400  0.20093105    -0.77600
O140        O  0.12093474  0.41472122  0.14495600    -0.77700
C141        C  0.11564863  0.37097558  0.14810929     1.02900
O142        O  0.02617718  0.41665414  0.12086096    -0.85100
O143        O  0.95523787  0.41799065  0.16458314    -0.82100
C144        C  0.93548970  0.42310141  0.19014781     0.98400
O145        O  0.95988207  0.42310437  0.21418318    -0.82200
O146        O  0.00199763  0.50821620  0.20764789    -0.84800
C147        C  0.02875951  0.53961608  0.19776192     1.02900
O148        O  0.06816348  0.52909641  0.18634069    -0.77600
O149        O  0.05233285  0.48658149  0.13092811    -0.77700
C150        C  0.03479540  0.45793655  0.11242320     1.02800
Cr151      Cr  0.01838210  0.38823159  0.16237614     1.93700
Cr152      Cr  0.02468733  0.44659707  0.22060671     1.93200
Cr153      Cr  0.08995027  0.46842802  0.16700749     1.39100
O154        O  0.04464957  0.43432721  0.18315101    -1.22800
O155        O  0.39847296  0.11935247  0.13153738    -0.85100
O156        O  0.43740746  0.13827709  0.18650095    -0.82100
C157        C  0.44890944  0.13389222  0.21404045     0.98400
O158        O  0.45472919  0.09354708  0.22519754    -0.82100
O159        O  0.36935683  0.04504394  0.22310197    -0.84800
C160        C  0.33596528  0.02113450  0.21265118     1.02900
O161        O  0.33997031  0.00092583  0.18709828    -0.77600
O162        O  0.34127796  0.07523378  0.14823814    -0.77700
C163        C  0.35542119  0.11367117  0.13765809     1.02900
O164        O  0.47556245  0.05384888  0.11999706    -0.85100
O165        O  0.51598312  0.07648229  0.17481959    -0.82100
C166        C  0.52792034  0.03913541  0.18848207     0.98400
O167        O  0.49752287  0.01260699  0.19963448    -0.82200
O168        O  0.41751023  0.96304483  0.20292923    -0.84800
C169        C  0.41921852  0.93873361  0.17878630     1.02900
O170        O  0.41359963  0.95772434  0.15293650    -0.77600
O171        O  0.40598590  0.02861628  0.10869984    -0.77700
C172        C  0.44771139  0.03651686  0.10094486     1.02800
Cr173      Cr  0.45444497  0.09331040  0.15443805     1.93700
Cr174      Cr  0.43374926  0.03030328  0.20978760     1.93200
Cr175      Cr  0.37874238  0.01781157  0.15060758     1.39100
O176        O  0.42250755  0.04737778  0.17160118    -1.22800
C177        C  0.24800546  0.18796494  0.15158310    -0.01700
C178        C  0.25464008  0.22642494  0.13191370     0.06900
C179        C  0.29465899  0.22754850  0.11343806    -0.07700
C180        C  0.32760638  0.19111406  0.11421925     0.04300
C181        C  0.32084111  0.15241155  0.13386062    -0.14900
C182        C  0.28046422  0.15151503  0.15214104    -0.08300
C183        C  0.22056315  0.26594810  0.13127256     0.05200
C184        C  0.23388778  0.30980722  0.14258344    -0.09400
C185        C  0.20099214  0.34570966  0.14648507     0.00200
C186        C  0.15343130  0.33770178  0.13953356     0.00100
C187        C  0.14087429  0.29470530  0.12648007    -0.12900
C188        C  0.17392263  0.25939942  0.12186858     0.00600
C189        C  0.21670485  0.38939223  0.15916366     0.39900
C190        C  0.15917094  0.21660285  0.10747513     0.36500
C191        C  0.20918451  0.18613278  0.17254038     0.36200
C192        C  0.36742436  0.19400208  0.09423298     0.37000
N193        N  0.22969747  0.42443571  0.16910170    -0.43800
N194        N  0.14740599  0.18243024  0.09574764    -0.44300
N195        N  0.39934307  0.19626294  0.07817197    -0.41600
N196        N  0.17818553  0.18479815  0.18940084    -0.43100
H197        H  0.27480110  0.12276611  0.16786470     0.13100
H198        H  0.30013270  0.25703068  0.09828074     0.09600
H199        H  0.26976839  0.31542674  0.14950454     0.10700
H200        H  0.10481714  0.28837561  0.12022939     0.16500
C201        C  0.52644670  0.00051788  0.03520380    -0.01700
C202        C  0.49715516  0.00612943  0.00950317     0.06900
C203        C  0.45147223  0.02227877  0.01402199    -0.07700
C204        C  0.43481753  0.03270866  0.04341510     0.04300
C205        C  0.46390323  0.02642154  0.06923517    -0.14900
C206        C  0.50983466  0.01087993  0.06460276    -0.08300
C207        C  0.51266703  0.99347084  0.97794087     0.05200
C208        C  0.49113114  0.95579418  0.96316036    -0.09400
C209        C  0.50473808  0.94186751  0.93374417     0.00200
C210        C  0.54042075  0.96635962  0.91803932     0.00100
C211        C  0.56146452  0.00460833  0.93281554    -0.12900
C212        C  0.54816914  0.01806183  0.96242237     0.00600
C213        C  0.48059567  0.90284331  0.92018837     0.39900
C214        C  0.57115772  0.05755545  0.97624766     0.36500
C215        C  0.57326423  0.98284248  0.03205247     0.36200
C216        C  0.38853047  0.05191182  0.04628149     0.37000
N217        N  0.46125737  0.87146260  0.90943144    -0.43800
N218        N  0.58986713  0.08903661  0.98734545    -0.44300
N219        N  0.35159852  0.06764403  0.04869110    -0.41600
N220        N  0.61083053  0.96880198  0.02942184    -0.43100
H221        H  0.53265784  0.00596136  0.08412112     0.13100
H222        H  0.42880370  0.02708230  0.99441177     0.09600
H223        H  0.46368784  0.93682324  0.97484884     0.10700
H224        H  0.58880024  0.02396852  0.92131771     0.16500
C225        C  0.03515079  0.53874251  0.96890313    -0.01700
C226        C  0.00715923  0.50562100  0.98422148     0.06900
C227        C  0.97111445  0.48364264  0.96800125    -0.07700
C228        C  0.96270847  0.49384773  0.93718330     0.04300
C229        C  0.98941239  0.52851132  0.92206341    -0.14900
C230        C  0.02559921  0.55049906  0.93835845    -0.08300
C231        C  0.01463365  0.49331583  0.01708001     0.05200
C232        C  0.01354026  0.52853510  0.03935226    -0.09400
C233        C  0.01993408  0.51821954  0.07045244     0.00200
C234        C  0.02643469  0.47146410  0.07996671     0.00100
C235        C  0.02685550  0.43629036  0.05761859    -0.12900
C236        C  0.02169265  0.44678989  0.02654819     0.00600
C237        C  0.01903663  0.55630318  0.09197115     0.39900
C238        C  0.02580682  0.40934038  0.00472346     0.36500
C239        C  0.07506826  0.55961192  0.98366294     0.36200
C240        C  0.92594862  0.46834544  0.92201074     0.37000
N241        N  0.01857678  0.58688804  0.10917220    -0.43800
N242        N  0.02923316  0.37939369  0.98720294    -0.44300
N243        N  0.89682373  0.44747272  0.90983066    -0.41600
N244        N  0.10723144  0.57591072  0.99555337    -0.43100
H245        H  0.04708675  0.57638729  0.92705542     0.13100
H246        H  0.94932309  0.45822365  0.97952761     0.09600
H247        H  0.00756317  0.56433903  0.03239219     0.10700
H248        H  0.03267375  0.40034378  0.06431833     0.16500
C249        C  0.75262499  0.81534813  0.87186678    -0.01700
C250        C  0.75120872  0.76991672  0.85968971     0.06900
C251        C  0.71106940  0.75529928  0.84417629    -0.07700
C252        C  0.67308924  0.78539950  0.83982373     0.04300
C253        C  0.67425370  0.83144526  0.85183228    -0.14900
C254        C  0.71440817  0.84540964  0.86806933    -0.08300
C255        C  0.79226164  0.73807353  0.86071743     0.05200
C256        C  0.79096377  0.69795951  0.87912385    -0.09400
C257        C  0.82739905  0.66517530  0.87849649     0.00200
C258        C  0.86607389  0.67209104  0.85890865     0.00100
C259        C  0.86755729  0.71305311  0.84113490    -0.12900
C260        C  0.83123081  0.74562806  0.84179437     0.00600
C261        C  0.82409204  0.62494125  0.89820785     0.39900
C262        C  0.83359992  0.78542478  0.82162078     0.36500
C263        C  0.79323855  0.83203633  0.88800958     0.36200
C264        C  0.63469302  0.76819630  0.82165884     0.37000
N265        N  0.82158293  0.59265683  0.91400219    -0.43800
N266        N  0.83546324  0.81726098  0.80541265    -0.44300
N267        N  0.60426845  0.75413062  0.80691135    -0.41600
N268        N  0.82588053  0.84544513  0.90084916    -0.43100
H269        H  0.71649654  0.88031394  0.87741747     0.13100
H270        H  0.71011403  0.72056442  0.83442424     0.09600
H271        H  0.76105526  0.69195645  0.89372025     0.10700
H272        H  0.89629949  0.71886814  0.82556470     0.16500
C273        C  0.97903820  0.16608672  0.31877478    -0.01700
C274        C  0.96359458  0.18676830  0.29128210     0.07700
C275        C  0.92731832  0.16561844  0.27490842    -0.07700
C276        C  0.90887650  0.12276407  0.28410228     0.04300
C277        C  0.92732790  0.09969886  0.31000535    -0.14900
C278        C  0.96054404  0.12290142  0.32808758    -0.08300
C279        C  0.98660149  0.22826719  0.27751518     0.05200
C280        C  0.00934305  0.22282871  0.24937048    -0.09400
C281        C  0.02550802  0.26151699  0.23299343     0.00200
C282        C  0.01954194  0.30673664  0.24497887     0.00100
C283        C  0.99970277  0.31198328  0.27406562    -0.12900
C284        C  0.98257726  0.27326519  0.29016323     0.00600
C285        C  0.04710454  0.25404567  0.20361726     0.39900
C286        C  0.95757148  0.28097588  0.31825403     0.36500
C287        C  0.01606038  0.18683592  0.33648664     0.36200
C288        C  0.87135320  0.10282386  0.26629610     0.37000
N289        N  0.06440140  0.24795479  0.18010311    -0.43800
N290        N  0.93733087  0.28722693  0.34070699    -0.44300
N291        N  0.84118706  0.08681590  0.25218495    -0.41600
N292        N  0.04564696  0.20374078  0.35065917    -0.43100
H293        H  0.97481508  0.10563593  0.34808520     0.13100
H294        H  0.91435150  0.18206483  0.25421699     0.09600
H295        H  0.01281765  0.18825423  0.23961170     0.10700
H296        H  0.99426338  0.34670262  0.28317924     0.16500
C297        C  0.94119204  0.72473169  0.26280398    -0.01700
C298        C  0.97171482  0.72299698  0.23753888     0.06900
C299        C  0.98904905  0.76491137  0.22553213    -0.07700
C300        C  0.97886316  0.80783864  0.23922960     0.04300
C301        C  0.95109130  0.80941631  0.26593674    -0.14900
C302        C  0.93156543  0.76754059  0.27686421    -0.08300
C303        C  0.98751416  0.67790720  0.22411559     0.05200
C304        C  0.95460207  0.64735224  0.21143760    -0.09400
C305        C  0.96783682  0.60328911  0.20074467     0.00200
C306        C  0.01496345  0.58901737  0.20245698     0.00100
C307        C  0.04837358  0.62100006  0.21293924    -0.12900
C308        C  0.03501971  0.66477491  0.22419556     0.00600
C309        C  0.93239193  0.57375535  0.18761223     0.39900
C310        C  0.07034695  0.69431827  0.23754915     0.36500
C311        C  0.92052657  0.68300424  0.27541646     0.36200
C312        C  0.99919611  0.84921827  0.22598256     0.37000
N313        N  0.90376237  0.55056179  0.17686687    -0.43800
N314        N  0.09860339  0.71795630  0.24835214    -0.44300
N315        N  0.01537808  0.88236235  0.21523823    -0.41600
N316        N  0.90355895  0.64969965  0.28540949    -0.43100
H317        H  0.90935857  0.76804806  0.29689751     0.13100
H318        H  0.01158566  0.76393811  0.20566577     0.09600
H319        H  0.91829420  0.65769692  0.21035475     0.10700
H320        H  0.08467662  0.61073493  0.21411019     0.16500
C321        C  0.15659620  0.93590929  0.29261942    -0.01700
C322        C  0.16864041  0.98049068  0.28152525     0.06900
C323        C  0.13534081  0.01588772  0.28188901    -0.07700
C324        C  0.08963934  0.00713220  0.29111003     0.04300
C325        C  0.07621925  0.96171536  0.30072236    -0.14900
C326        C  0.11077026  0.92698351  0.30243758    -0.08300
C327        C  0.21271861  0.98985680  0.26492338     0.05200
C328        C  0.21004394  0.99539605  0.23319093    -0.09400
C329        C  0.24935142  0.00707592  0.21605369     0.00200
C330        C  0.29286872  0.01348172  0.23068096     0.00100
C331        C  0.29542305  0.00881250  0.26266375    -0.12900
C332        C  0.25571268  0.99697124  0.27982540     0.00600
C333        C  0.24355690  0.01354016  0.18354072     0.39900
C334        C  0.25956728  0.99281048  0.31257796     0.36500
C335        C  0.18978355  0.89819235  0.29225669     0.36200
C336        C  0.05738735  0.04549791  0.28883172     0.37000
N337        N  0.23886275  0.01872297  0.15750261    -0.43800
N338        N  0.26249129  0.98941389  0.33884973    -0.44300
N339        N  0.03230918  0.07675116  0.28619810    -0.41600
N340        N  0.21637655  0.86791556  0.29193432    -0.43100
H341        H  0.10144240  0.89205944  0.30976293     0.13100
H342        H  0.14463980  0.05022251  0.27332466     0.09600
H343        H  0.17673395  0.99091546  0.22175723     0.10700
H344        H  0.32862109  0.01335976  0.27417544     0.16500
C345        C  0.75373134  0.98047287  0.21656831    -0.01700
C346        C  0.71260217  0.99657642  0.23044558     0.06900
C347        C  0.71018364  0.99956647  0.26226515    -0.07700
C348        C  0.74837887  0.98790622  0.28048031     0.04300
C349        C  0.79031482  0.97250393  0.26678438    -0.14900
C350        C  0.79219017  0.96839543  0.23476664    -0.08300
C351        C  0.66975811  0.00705570  0.21297580     0.05200
C352        C  0.63748353  0.97112939  0.20950029    -0.09400
C353        C  0.59175222  0.98047510  0.20058780     0.00200
C354        C  0.57784701  0.02681422  0.19344591     0.00100
C355        C  0.61162927  0.06238431  0.19475378    -0.12900
C356        C  0.65700676  0.05298144  0.20522101     0.00600
C357        C  0.55958227  0.94189450  0.20189832     0.39900
C358        C  0.68887466  0.09119493  0.21015259     0.36500
C359        C  0.75740951  0.97690906  0.18380269     0.36200
C360        C  0.74304568  0.99206679  0.31314498     0.37000
N361        N  0.53450024  0.91054900  0.20424629    -0.43800
N362        N  0.71450799  0.12165389  0.21449468    -0.44300
N363        N  0.73859124  0.99592592  0.33927098    -0.41600
N364        N  0.76049799  0.97422535  0.15751922    -0.43100
H365        H  0.82411728  0.95711686  0.22385979     0.13100
H366        H  0.67806841  0.01100432  0.27291086     0.09600
H367        H  0.64714833  0.93597811  0.21617388     0.10700
H368        H  0.60172141  0.09810631  0.18986891     0.16500
C369        C  0.68836710  0.73133280  0.33740359    -0.01700
C370        C  0.72035390  0.72810482  0.36181249     0.06900
C371        C  0.71759984  0.68946400  0.38155911    -0.07700
C372        C  0.68341005  0.65465704  0.37742649     0.04300
C373        C  0.65111419  0.65816410  0.35309155    -0.14900
C374        C  0.65453487  0.69665672  0.33324214    -0.08300
C375        C  0.75692843  0.76465279  0.36653473     0.05200
C376        C  0.74341468  0.81005711  0.37449914    -0.09400
C377        C  0.77601937  0.84658996  0.37564012     0.00200
C378        C  0.82328907  0.83827811  0.36821677     0.00100
C379        C  0.83722456  0.79222831  0.36215298    -0.12900
C380        C  0.80459851  0.75563062  0.36128040     0.00600
C381        C  0.76019763  0.89208279  0.38506921     0.39900
C382        C  0.82041272  0.70956386  0.35321373     0.36500
C383        C  0.69014562  0.76944894  0.31583081     0.36200
C384        C  0.68122167  0.61678989  0.39907983     0.37000
N385        N  0.74763006  0.92837262  0.39304959    -0.43800
N386        N  0.83298337  0.67255289  0.34681420    -0.44300
N387        N  0.67942336  0.58648605  0.41651153    -0.41600
N388        N  0.69142397  0.79993422  0.29851078    -0.43100
H389        H  0.63092735  0.69941886  0.31397430     0.13100
H390        H  0.74197342  0.68674620  0.40043029     0.09600
H391        H  0.70701499  0.81712935  0.37927818     0.10700
H392        H  0.87327413  0.78513899  0.35639187     0.16500
C393        C  0.48567337  0.71442291  0.20231332    -0.01700
C394        C  0.48549615  0.75968422  0.21482187     0.06900
C395        C  0.50388148  0.76666371  0.24418443    -0.07700
C396        C  0.51926111  0.72917411  0.26193184     0.04300
C397        C  0.51744466  0.68350347  0.25005054    -0.14900
C398        C  0.50239322  0.67687019  0.21978514    -0.08300
C399        C  0.46197524  0.79984552  0.19982324     0.05200
C400        C  0.42365043  0.81940629  0.21485781    -0.09400
C401        C  0.40652515  0.86311569  0.20649083     0.00200
C402        C  0.42726145  0.88792619  0.18211457     0.00100
C403        C  0.46198363  0.86594133  0.16468516    -0.12900
C404        C  0.48022115  0.82252503  0.17380848     0.00600
C405        C  0.36909695  0.88273954  0.22437591     0.39900
C406        C  0.52060021  0.80439040  0.15825213     0.36500
C407        C  0.46549596  0.70509669  0.17274795     0.36200
C408        C  0.53533204  0.73855450  0.29258997     0.37000
N409        N  0.33931843  0.89846074  0.23885727    -0.43800
N410        N  0.55314371  0.78978867  0.14598899    -0.44300
N411        N  0.54784535  0.74663951  0.31715648    -0.41600
N412        N  0.44916684  0.69745971  0.14909597    -0.43100
H413        H  0.50028258  0.64184314  0.21060388     0.13100
H414        H  0.50416666  0.80148288  0.25382392     0.09600
H415        H  0.40898013  0.80171083  0.23454943     0.10700
H416        H  0.47822626  0.88473574  0.14600418     0.16500
C417        C  0.54288443  0.32814484  0.26704183    -0.01700
C418        C  0.49749038  0.31024756  0.27181006     0.06900
C419        C  0.46537144  0.33751524  0.28801054    -0.07700
C420        C  0.47702410  0.38243981  0.29818206     0.04300
C421        C  0.52180465  0.40108758  0.29242834    -0.14900
C422        C  0.55466596  0.37305622  0.27742579    -0.08300
C423        C  0.48217954  0.26431174  0.25892313     0.05200
C424        C  0.50378521  0.22287936  0.26862088    -0.09400
C425        C  0.49184933  0.17953093  0.25570102     0.00200
C426        C  0.45784572  0.17707440  0.23224940     0.00100
C427        C  0.43514508  0.21844781  0.22347249    -0.12900
C428        C  0.44670664  0.26151592  0.23658655     0.00600
C429        C  0.51673847  0.13869085  0.26594359     0.39900
C430        C  0.42285726  0.30263573  0.22573271     0.36500
C431        C  0.57723311  0.30213024  0.25013881     0.36200
C432        C  0.44260104  0.40820713  0.31510490     0.37000
N433        N  0.53665871  0.10596383  0.27422083    -0.43800
N434        N  0.40353243  0.33545916  0.21703175    -0.44300
N435        N  0.41477849  0.42805727  0.32901592    -0.41600
N436        N  0.60485260  0.28133818  0.23660564    -0.43100
H437        H  0.58895534  0.38713204  0.27247500     0.13100
H438        H  0.43071244  0.32386006  0.29231620     0.09600
H439        H  0.53064281  0.22453572  0.28604313     0.10700
H440        H  0.40880075  0.21736658  0.20568241     0.16500
C441        C  0.70461137  0.46381480  0.21261393    -0.01700
C442        C  0.74918859  0.48145780  0.21962404     0.06900
C443        C  0.75312852  0.51809371  0.24067717    -0.07700
C444        C  0.71408828  0.53512190  0.25625826     0.04300
C445        C  0.66961254  0.51524352  0.25092115    -0.14900
C446        C  0.66533073  0.48083122  0.22814226    -0.08300
C447        C  0.79281701  0.45836724  0.20914359     0.05200
C448        C  0.80994357  0.46520099  0.17938601    -0.09400
C449        C  0.85503155  0.44997624  0.17129377     0.00200
C450        C  0.88406881  0.42912968  0.19363352     0.00100
C451        C  0.86468472  0.41849283  0.22232606    -0.12900
C452        C  0.81966175  0.43248092  0.23005743     0.00600
C453        C  0.87125100  0.45814934  0.14056734     0.39900
C454        C  0.80207526  0.42106335  0.26005882     0.36500
C455        C  0.69871920  0.42651287  0.19089148     0.36200
C456        C  0.72099023  0.57264677  0.27777405     0.37000
N457        N  0.88418392  0.46436116  0.11586843    -0.43800
N458        N  0.78773697  0.41185167  0.28400832    -0.44300
N459        N  0.72667621  0.60275622  0.29495104    -0.41600
N460        N  0.69389718  0.39666418  0.17342412    -0.43100
H461        H  0.63151020  0.46531538  0.22353857     0.13100
H462        H  0.78740600  0.53213015  0.24592851     0.09600
H463        H  0.78886546  0.48398128  0.16288636     0.10700
H464        H  0.88549922  0.40060526  0.23940899     0.16500
C465        C  0.24812828  0.46472122  0.25966519    -0.01700
C466        C  0.24978882  0.50600763  0.27703855     0.06900
C467        C  0.20919922  0.53251683  0.28057204    -0.07700
C468        C  0.16755379  0.51946412  0.26609656     0.04300
C469        C  0.16625870  0.47914794  0.24751193    -0.14900
C470        C  0.20654964  0.45156474  0.24521142    -0.08300
C471        C  0.29477300  0.52560057  0.28772714     0.05200
C472        C  0.31568222  0.56039010  0.26993929    -0.09400
C473        C  0.36048034  0.57653558  0.27673072     0.00200
C474        C  0.38513322  0.55783346  0.30190390     0.00100
C475        C  0.36251536  0.52607892  0.32129739    -0.12900
C476        C  0.31785866  0.50921660  0.31407985     0.00600
C477        C  0.38037017  0.61228581  0.25743200     0.39900
C478        C  0.29713302  0.47403079  0.33332628     0.36500
C479        C  0.28936227  0.43693892  0.25472606     0.36200
C480        C  0.12801474  0.55013283  0.26905282     0.37000
N481        N  0.39603511  0.64108721  0.24200561    -0.43800
N482        N  0.28068454  0.44571245  0.34877769    -0.44300
N483        N  0.09675704  0.57517977  0.27185715    -0.41600
N484        N  0.32238199  0.41471060  0.25062218    -0.43100
H485        H  0.20595970  0.42044617  0.23125396     0.13100
H486        H  0.21065487  0.56457807  0.29355747     0.09600
H487        H  0.29752415  0.57379775  0.25004730     0.10700
H488        H  0.38077588  0.51238362  0.34101549     0.16500
C489        C  0.47829549  0.53403462  0.46380089    -0.01700
C490        C  0.50430709  0.49938214  0.47904990     0.06900
C491        C  0.53826821  0.47481517  0.46268198    -0.07700
C492        C  0.54706500  0.48460731  0.43175340     0.04300
C493        C  0.52234323  0.52071199  0.41657948    -0.14900
C494        C  0.48787909  0.54487101  0.43309359    -0.08300
C495        C  0.49653063  0.48820255  0.51202112     0.05200
C496        C  0.45561405  0.46493152  0.52076653    -0.09400
C497        C  0.44681759  0.45432663  0.55155007     0.00200
C498        C  0.47953184  0.46681000  0.57438049     0.00100
C499        C  0.52087818  0.48929971  0.56554155    -0.12900
C500        C  0.52930945  0.50047082  0.53475852     0.00600
C501        C  0.40465387  0.42917133  0.55897082     0.39900
C502        C  0.57093277  0.52625860  0.52717511     0.36500
C503        C  0.44186898  0.55915354  0.47939987     0.36200
C504        C  0.58244340  0.45753202  0.41654299     0.37000
N505        N  0.37094837  0.40892352  0.56494017    -0.43800
N506        N  0.60414822  0.54726359  0.52117954    -0.44300
N507        N  0.61060808  0.43556993  0.40434496    -0.41600
N508        N  0.41250512  0.57886656  0.49202563    -0.43100
H509        H  0.46805848  0.57221274  0.42193492     0.13100
H510        H  0.55799455  0.44770471  0.47417570     0.09600
H511        H  0.43047289  0.45497595  0.50342865     0.10700
H512        H  0.54606213  0.49934784  0.58282813     0.16500
C513        C  0.28806315  0.53732735  0.77045959    -0.01700
C514        C  0.25879268  0.50151986  0.78151577     0.06900
C515        C  0.27143816  0.45476778  0.77652300    -0.07700
C516        C  0.31124214  0.44350788  0.75950109     0.04300
C517        C  0.33890728  0.47948647  0.74718178    -0.14900
C518        C  0.32765112  0.52602593  0.75348326    -0.08300
C519        C  0.21071954  0.51210132  0.79197663     0.05200
C520        C  0.17411254  0.49807667  0.77297862    -0.09400
C521        C  0.12853389  0.51255356  0.77837221     0.00200
C522        C  0.11849414  0.54190891  0.80355370     0.00100
C523        C  0.15477543  0.55358767  0.82379100    -0.12900
C524        C  0.20076229  0.53909946  0.81810730     0.00600
C525        C  0.09303785  0.49621377  0.75750329     0.39900
C526        C  0.23718894  0.55289757  0.83899357     0.36500
C527        C  0.27633046  0.58594381  0.77403750     0.36200
C528        C  0.32055656  0.39522504  0.75257401     0.37000
N529        N  0.06503677  0.48287582  0.74057244    -0.43800
N530        N  0.26644791  0.56417166  0.85564888    -0.44300
N531        N  0.32797647  0.35660288  0.74677922    -0.41600
N532        N  0.26705631  0.62491549  0.77698459    -0.43100
H533        H  0.34903868  0.55380944  0.74408325     0.13100
H534        H  0.24857599  0.42708638  0.78440122     0.09600
H535        H  0.18151881  0.47698365  0.75299720     0.10700
H536        H  0.14753513  0.57533216  0.84345802     0.16500
C537        C  0.67340277  0.52001791  0.70201428    -0.01700
C538        C  0.70397007  0.48768418  0.71577659     0.06900
C539        C  0.69021605  0.44065285  0.71767679    -0.07700
C540        C  0.64600430  0.42614724  0.70747253     0.04300
C541        C  0.61464828  0.45907092  0.69513112    -0.14900
C542        C  0.62929290  0.50560744  0.69200517    -0.08300
C543        C  0.74855686  0.50295207  0.73042380     0.05200
C544        C  0.74691649  0.53537459  0.75439799    -0.09400
C545        C  0.78749137  0.54933438  0.76981180     0.00200
C546        C  0.83124748  0.53021054  0.76159180     0.00100
C547        C  0.83290257  0.49881230  0.73691130    -0.12900
C548        C  0.79220068  0.48507458  0.72147239     0.00600
C549        C  0.78289572  0.58373218  0.79368875     0.39900
C550        C  0.79606452  0.45270075  0.69641622     0.36500
C551        C  0.68621062  0.56839885  0.69837135     0.36200
C552        C  0.63223046  0.37829382  0.71234764     0.37000
N553        N  0.77904991  0.61137479  0.81274059    -0.43800
N554        N  0.79900539  0.42670345  0.67633871    -0.44300
N555        N  0.62115992  0.33996818  0.71636046    -0.41600
N556        N  0.69650386  0.60716450  0.69547699    -0.43100
H557        H  0.60538310  0.53125105  0.68270587     0.13100
H558        H  0.71324309  0.41559931  0.72847133     0.09600
H559        H  0.71353211  0.54945677  0.76138768     0.10700
H560        H  0.86596270  0.48382129  0.73012029     0.16500
C561        C  0.49227455  0.15429386  0.79538005    -0.01700
C562        C  0.52573471  0.18551047  0.78381470     0.06900
C563        C  0.57287039  0.17271042  0.78352987    -0.07700
C564        C  0.58664196  0.12796319  0.79263421     0.04300
C565        C  0.55267531  0.09536510  0.80210498    -0.14900
C566        C  0.50590570  0.10955899  0.80439353    -0.08300
C567        C  0.51173554  0.22884977  0.76803429     0.05200
C568        C  0.51361881  0.27140597  0.78351552    -0.09400
C569        C  0.50342913  0.31326770  0.76836165     0.00200
C570        C  0.49148692  0.31274879  0.73686517     0.00100
C571        C  0.48817955  0.26946794  0.72191158    -0.12900
C572        C  0.49825549  0.22789647  0.73713411     0.00600
C573        C  0.50576898  0.35581712  0.78585803     0.39900
C574        C  0.49594290  0.18465277  0.72033482     0.36500
C575        C  0.44361085  0.16685108  0.79691183     0.36200
C576        C  0.63506469  0.11528532  0.78944733     0.37000
N577        N  0.50763564  0.38983178  0.79998248    -0.43800
N578        N  0.49418815  0.14999835  0.70689579    -0.44300
N579        N  0.67390620  0.10524197  0.78687382    -0.41600
N580        N  0.40467671  0.17712148  0.79822297    -0.43100
H581        H  0.47970684  0.08503505  0.81210051     0.13100
H582        H  0.59854343  0.19682571  0.77452553     0.09600
H583        H  0.52362343  0.27190489  0.80743274     0.10700
H584        H  0.47885945  0.26792978  0.69790592     0.16500
C585        C  0.48107265  0.68051110  0.67655067    -0.01700
C586        C  0.51267345  0.69073243  0.70040953     0.06900
C587        C  0.53093756  0.65417207  0.71779145    -0.07700
C588        C  0.51624352  0.60837185  0.71326889     0.04300
C589        C  0.48277843  0.59796435  0.69033790    -0.14900
C590        C  0.46689056  0.63422863  0.67139602    -0.08300
C591        C  0.52124601  0.73887284  0.71158058     0.05200
C592        C  0.48338884  0.76333539  0.72375449    -0.09400
C593        C  0.49030270  0.80371292  0.74096345     0.00200
C594        C  0.53594511  0.82016531  0.74657812     0.00100
C595        C  0.57370585  0.79768607  0.73263432    -0.12900
C596        C  0.56669735  0.75712223  0.71530285     0.00600
C597        C  0.44974218  0.82786190  0.75221821     0.39900
C598        C  0.60663090  0.73423518  0.70212211     0.36500
C599        C  0.46185976  0.71713160  0.65776395     0.36200
C600        C  0.53529862  0.57342942  0.73352614     0.37000
N601        N  0.41681602  0.84711227  0.76066355    -0.43800
N602        N  0.63870381  0.71605897  0.69149196    -0.44300
N603        N  0.55070591  0.54622112  0.75025670    -0.41600
N604        N  0.44644244  0.74660654  0.64279073    -0.43100
H605        H  0.44156349  0.62683206  0.65361422     0.13100
H606        H  0.55482916  0.66186110  0.73639695     0.09600
H607        H  0.44839582  0.74959988  0.72104674     0.10700
H608        H  0.60877599  0.81055304  0.73641844     0.16500
C609        C  0.01468283  0.05293173  0.52530427    -0.01700
C610        C  0.00442839  0.00623276  0.51794482     0.06900
C611        C  0.00631986  0.97220781  0.54097665    -0.07700
C612        C  0.01912037  0.98394029  0.57091426     0.04300
C613        C  0.03135788  0.03049534  0.57803942    -0.14900
C614        C  0.02818466  0.06461431  0.55503935    -0.08300
C615        C  0.99072382  0.99251119  0.48647144     0.05200
C616        C  0.02323656  0.99663000  0.46266677    -0.09400
C617        C  0.01113438  0.98508162  0.43253407     0.00200
C618        C  0.96549147  0.96934272  0.42585782     0.00100
C619        C  0.93320404  0.96517043  0.44983424    -0.12900
C620        C  0.94546843  0.97626696  0.47988622     0.00600
C621        C  0.04560069  0.99159449  0.40890160     0.39900
C622        C  0.91066067  0.97167503  0.50348279     0.36500
C623        C  0.01034412  0.08969367  0.50292832     0.36200
C624        C  0.01729518  0.94796993  0.59401667     0.37000
N625        N  0.07336697  0.99701276  0.39007518    -0.43800
N626        N  0.88278684  0.96787104  0.52239657    -0.44300
N627        N  0.01542521  0.91927701  0.61258906    -0.41600
N628        N  0.00663559  0.11924728  0.48508026    -0.43100
H629        H  0.03670375  0.10059316  0.56017594     0.13100
H630        H  0.99744569  0.93641231  0.53554613     0.09600
H631        H  0.05808324  0.00920598  0.46766237     0.10700
H632        H  0.89816425  0.95287587  0.44512306     0.16500
C633        C  0.25471738  0.18763878  0.64618651    -0.01700
C634        C  0.24616259  0.23219157  0.63356547     0.06900
C635        C  0.20297148  0.24064971  0.61945031    -0.07700
C636        C  0.16769426  0.20667587  0.61944456     0.04300
C637        C  0.17517246  0.16326582  0.63385802    -0.14900
C638        C  0.21937593  0.15365125  0.64617644    -0.08300
C639        C  0.28078861  0.27102347  0.63622341     0.05200
C640        C  0.32392633  0.26769500  0.62134602    -0.09400
C641        C  0.35767142  0.30308551  0.62398673     0.00200
C642        C  0.34867743  0.34318990  0.64201307     0.00100
C643        C  0.30499686  0.34641680  0.65659416    -0.12900
C644        C  0.27137552  0.31105722  0.65383278     0.00600
C645        C  0.40089364  0.29702691  0.60766478     0.39900
C646        C  0.22787941  0.31598609  0.67008559     0.36500
C647        C  0.29844743  0.17697407  0.66096571     0.36200
C648        C  0.12420274  0.21688241  0.60424248     0.37000
N649        N  0.43549014  0.29205820  0.59452254    -0.43800
N650        N  0.19295414  0.31982477  0.68302301    -0.44300
N651        N  0.08944323  0.22484364  0.59186014    -0.41600
N652        N  0.33352145  0.16846372  0.67279753    -0.43100
H653        H  0.22544061  0.12053714  0.65746290     0.13100
H654        H  0.19647009  0.27431133  0.60900559     0.09600
H655        H  0.33126531  0.23720121  0.60759194     0.10700
H656        H  0.29716667  0.37633158  0.67076154     0.16500
C657        C  0.36471402  0.01444609  0.78153583    -0.01700
C658        C  0.32608204  0.98427495  0.78422186     0.06900
C659        C  0.33146785  0.94163834  0.79976253    -0.07700
C660        C  0.37547510  0.92754263  0.81052017     0.04300
C661        C  0.41464651  0.95606597  0.80510952    -0.14900
C662        C  0.40846093  0.99991793  0.79159377    -0.08300
C663        C  0.28211946  0.99465165  0.76752287     0.05200
C664        C  0.28433002  0.99967157  0.73570892    -0.09400
C665        C  0.24520106  0.01254978  0.71865879     0.00200
C666        C  0.20196204  0.02036226  0.73350406     0.00100
C667        C  0.19963179  0.01394702  0.76539872    -0.12900
C668        C  0.23915157  0.00114661  0.78238174     0.00600
C669        C  0.25099176  0.01653278  0.68597457     0.39900
C670        C  0.23500240  0.99584304  0.81503322     0.36500
C671        C  0.36070554  0.05965853  0.76719052     0.36200
C672        C  0.38032673  0.88233871  0.82466045     0.37000
N673        N  0.25601188  0.01960404  0.65982430    -0.43800
N674        N  0.23162631  0.99139943  0.84120555    -0.44300
N675        N  0.38438022  0.84603273  0.83589935    -0.41600
N676        N  0.35734877  0.09574827  0.75556622    -0.43100
H677        H  0.43849030  0.02199720  0.78741293     0.13100
H678        H  0.30187592  0.91827013  0.80197241     0.09600
H679        H  0.31720546  0.99383367  0.72412160     0.10700
H680        H  0.16692144  0.01922930  0.77723169     0.16500
C681        C  0.73453689  0.03685195  0.71934752    -0.01700
C682        C  0.77868173  0.01776020  0.72578470     0.06900
C683        C  0.78203331  0.98028140  0.74624412    -0.07700
C684        C  0.74252304  0.96291185  0.76128189     0.04300
C685        C  0.69835894  0.98341518  0.75611475    -0.14900
C686        C  0.69485780  0.01953863  0.73436267    -0.08300
C687        C  0.82244688  0.03806989  0.71334335     0.05200
C688        C  0.84520337  0.07272875  0.73027813    -0.09400
C689        C  0.89004087  0.08781136  0.72229766     0.00200
C690        C  0.91284753  0.06828906  0.69670438     0.00100
C691        C  0.88859426  0.03609019  0.67844997    -0.12900
C692        C  0.84396081  0.02040500  0.68684852     0.00600
C693        C  0.91212901  0.12303019  0.74096210     0.39900
C694        C  0.82191701  0.98438562  0.66896461     0.36500
C695        C  0.72934824  0.07479179  0.69792646     0.36200
C696        C  0.74836160  0.92382009  0.78172514     0.37000
N697        N  0.92989052  0.15126356  0.75584201    -0.43800
N698        N  0.80427389  0.95538639  0.65468721    -0.44300
N699        N  0.75277908  0.89243231  0.79809502    -0.41600
N700        N  0.72509208  0.10509368  0.68067493    -0.43100
H701        H  0.66134670  0.03564234  0.72994119     0.13100
H702        H  0.81592835  0.96515971  0.75095471     0.09600
H703        H  0.82858278  0.08670224  0.75051559     0.10700
H704        H  0.90579390  0.02068618  0.65888538     0.16500
C705        C  0.03244045  0.23535827  0.78625678    -0.01700
C706        C  0.02667476  0.27795512  0.77067492     0.06900
C707        C  0.03734148  0.28078755  0.73958267    -0.07700
C708        C  0.05083689  0.24125925  0.72337727     0.04300
C709        C  0.05391661  0.19770368  0.73841173    -0.14900
C710        C  0.04633639  0.19552649  0.77007871    -0.08300
C711        C  0.00886641  0.32038730  0.78573789     0.05200
C712        C  0.04058205  0.34975187  0.80053206    -0.09400
C713        C  0.02730389  0.39451804  0.80957428     0.00200
C714        C  0.98140470  0.41029038  0.80390421     0.00100
C715        C  0.94876164  0.37956856  0.79115192    -0.12900
C716        C  0.96229031  0.33495594  0.78174078     0.00600
C717        C  0.06166372  0.42372949  0.82425001     0.39900
C718        C  0.92859961  0.30576249  0.76641478     0.36500
C719        C  0.02180453  0.23133221  0.81833448     0.36200
C720        C  0.06014524  0.24626918  0.69112403     0.37000
N721        N  0.08949883  0.44646951  0.83626760    -0.43800
N722        N  0.90153592  0.28251314  0.75405635    -0.44300
N723        N  0.06732118  0.25055699  0.66528016    -0.41600
N724        N  0.01308332  0.22813544  0.84404340    -0.43100
H725        H  0.04819456  0.16223348  0.78177276     0.13100
H726        H  0.03381341  0.31387153  0.72776147     0.09600
H727        H  0.07636106  0.33849402  0.80365691     0.10700
H728        H  0.91360392  0.39156124  0.78653355     0.16500
C729        C  0.05798041  0.82992358  0.69484377    -0.01700
C730        C  0.01432822  0.81961322  0.70795864     0.06900
C731        C  0.98221624  0.85549552  0.71235268    -0.07700
C732        C  0.99424588  0.90182961  0.70679247     0.04300
C733        C  0.03930724  0.91314674  0.69553854    -0.14900
C734        C  0.06990105  0.87640045  0.68833282    -0.08300
C735        C  0.00532188  0.77510237  0.72406751     0.05200
C736        C  0.00468561  0.77660364  0.75601647    -0.09400
C737        C  0.99661223  0.73659108  0.77323909     0.00200
C738        C  0.98955222  0.69338645  0.75846062     0.00100
C739        C  0.98843337  0.69206588  0.72632535    -0.12900
C740        C  0.99618086  0.73266394  0.70904091     0.00600
C741        C  0.99477109  0.74144147  0.80605513     0.39900
C742        C  0.99399436  0.73017082  0.67616488     0.36500
C743        C  0.09228956  0.79390071  0.69015819     0.36200
C744        C  0.96024879  0.93651138  0.71521845     0.37000
N745        N  0.99324771  0.74579335  0.83230446    -0.43800
N746        N  0.99203441  0.72809386  0.64980277    -0.44300
N747        N  0.93280279  0.96356374  0.72284320    -0.41600
N748        N  0.11970483  0.76492613  0.68643118    -0.43100
H749        H  0.10429932  0.88406149  0.67941389     0.13100
H750        H  0.94871136  0.84749767  0.72260941     0.09600
H751        H  0.01066950  0.80949390  0.76760779     0.10700
H752        H  0.98263880  0.65919804  0.71472635     0.16500
loop_ 
_geom_bond_atom_site_label_1 
_geom_bond_atom_site_label_2 
_geom_bond_distance 
_geom_bond_site_symmetry_2 
_ccdc_geom_bond_type 
O1          Cr19   2.024       .  S
O1            C9   1.272       .  A
O2          Cr19   1.967       .  S
O2            C3   1.254       .  A
C3            O4   1.264       .  A
C3          C666   1.492       .  S
O4          Cr20   2.012       .  S
O5          Cr20   1.988       .  S
O5            C6   1.264       .  A
C6            O7   1.264       .  A
C6          C709   1.476       .  S
O7          Cr21   1.992       .  S
O8          Cr21   1.971       .  S
O8            C9   1.262       .  A
C9          C637   1.485       .  S
O10         Cr19   1.977       .  S
O10          C18   1.255       .  A
O11         Cr19   2.022   1_565  S
O11          C12   1.271       .  A
C12          O13   1.259       .  A
C12         C733   1.492       .  S
O13         Cr20   1.960   1_565  S
O14         Cr20   2.007   1_655  S
O14          C15   1.266       .  A
C15          O16   1.265       .  A
C15         C690   1.485       .  S
O16         Cr21   1.996   1_655  S
O17         Cr21   1.996       .  S
O17          C18   1.260       .  A
C18         C613   1.485       .  S
Cr19         O22   1.772       .  S
Cr20         O22   1.774       .  S
Cr21         O22   1.771       .  S
O23         Cr41   1.983       .  S
O23          C31   1.267       .  A
O24         Cr41   2.010       .  S
O24          C25   1.265       .  A
C25          O26   1.259       .  A
C25         C517   1.473       .  S
O26         Cr42   1.983       .  S
O27         Cr42   1.999       .  S
O27          C28   1.261       .  A
C28          O29   1.258       .  A
C28         C570   1.490       .  S
O29         Cr43   1.972       .  S
O30         Cr43   2.026       .  S
O30          C31   1.274       .  A
C31         C642   1.503       .  S
O32         Cr41   2.009       .  S
O32          C40   1.263       .  A
O33         Cr41   2.003       .  S
O33          C34   1.269       .  A
C34          O35   1.264       .  A
C34         C589   1.486       .  S
O35         Cr42   1.995       .  S
O36         Cr42   1.956       .  S
O36          C37   1.255       .  A
C37          O38   1.272       .  A
C37         C541   1.483       .  S
O38         Cr43   2.038       .  S
O39         Cr43   1.993       .  S
O39          C40   1.260       .  A
C40         C498   1.489       .  S
Cr41         O44   1.770       .  S
Cr42         O44   1.765       .  S
Cr43         O44   1.768       .  S
O45         Cr63   1.969       .  S
O45          C53   1.260       .  A
O46         Cr63   2.010       .  S
O46          C47   1.269       .  A
C47          O48   1.263       .  A
C47         C397   1.480       .  S
O48         Cr64   1.982       .  S
O49         Cr64   2.015       .  S
O49          C50   1.264       .  A
C50          O51   1.258       .  A
C50         C445   1.493       .  S
O51         Cr65   1.979       .  S
O52         Cr65   2.036       .  S
O52          C53   1.273       .  A
C53         C373   1.496       .  S
O54         Cr63   2.018       .  S
O54          C62   1.267       .  A
O55         Cr63   1.994       .  S
O55          C56   1.263       .  A
C56          O57   1.263       .  A
C56         C474   1.479       .  S
O57         Cr64   1.999       .  S
O58         Cr64   1.973       .  S
O58          C59   1.260       .  A
C59          O60   1.275       .  A
C59         C421   1.490       .  S
O60         Cr65   2.042       .  S
O61         Cr65   1.985       .  S
O61          C62   1.260       .  A
C62         C493   1.501       .  S
Cr63         O66   1.772       .  S
Cr64         O66   1.773       .  S
Cr65         O66   1.772       .  S
O67         Cr85   2.028       .  S
O67          C75   1.274       .  A
O68         Cr85   1.975       .  S
O68          C69   1.256       .  A
C69          O70   1.264       .  A
C69         C301   1.492       .  S
O70         Cr86   2.010       .  S
O71         Cr86   1.982       .  S
O71          C72   1.262       .  A
C72          O73   1.265       .  A
C72         C349   1.484       .  S
O73         Cr87   2.001       .  S
O74         Cr87   1.972       .  S
O74          C75   1.263       .  A
C75         C378   1.493       .  S
O76         Cr85   1.985       .  S
O76          C84   1.257       .  A
O77         Cr85   2.031   1_455  S
O77          C78   1.273       .  A
C78          O79   1.257   1_455  A
C78         C325   1.493       .  S
O79         Cr86   1.957       .  S
O80         Cr86   2.002   1_545  S
O80          C81   1.267       .  A
C81          O82   1.266       .  A
C81         C277   1.483       .  S
O82         Cr87   1.998   1_545  S
O83         Cr87   2.000       .  S
O83          C84   1.262       .  A
C84         C618   1.485       .  S
Cr85         O88   1.772       .  S
Cr86         O88   1.768       .  S
Cr87         O88   1.771       .  S
O89        Cr107   2.021       .  S
O89          C97   1.272       .  A
O90        Cr107   1.975       .  S
O90          C91   1.256       .  A
C91          O92   1.265       .  A
C91         C546   1.495       .  S
O92        Cr108   2.015       .  S
O93        Cr108   1.982       .  S
O93          C94   1.264       .  A
C94          O95   1.268   1_655  A
C94         C738   1.479       .  S
O95        Cr109   2.005   1_455  S
O96        Cr109   1.975       .  S
O96          C97   1.263       .  A
C97         C258   1.496       .  S
O98        Cr107   1.974       .  S
O98         C106   1.256       .  A
O99        Cr107   2.026       .  S
O99         C100   1.271       .  A
C100        O101   1.257       .  A
C100        C714   1.474       .  S
O101       Cr108   1.959       .  S
O102       Cr108   1.995   1_455  S
O102        C103   1.263       .  A
C103        O104   1.265       .  A
C103        C522   1.486       .  S
O104       Cr109   2.000   1_455  S
O105       Cr109   2.014       .  S
O105        C106   1.264       .  A
C106        C229   1.494       .  S
Cr107       O110   1.768       .  S
Cr108       O110   1.769       .  S
Cr109       O110   1.771       .  S
O111       Cr129   2.024       .  S
O111        C119   1.273       .  A
O112       Cr129   1.980       .  S
O112        C113   1.259       .  A
C113        O114   1.264       .  A
C113        C685   1.493       .  S
O114       Cr130   2.011       .  S
O115       Cr130   1.985       .  S
O115        C116   1.261       .  A
C116        O117   1.267       .  A
C116        C594   1.478       .  S
O117       Cr131   2.013       .  S
O118       Cr131   1.978       .  S
O118        C119   1.263       .  A
C119        C253   1.503       .  S
O120       Cr129   1.988       .  S
O120        C128   1.260       .  A
O121       Cr129   2.024   1_545  S
O121        C122   1.270       .  A
C122        O123   1.257       .  A
C122        C565   1.477       .  S
O123       Cr130   1.959   1_545  S
O124       Cr130   1.995       .  S
O124        C125   1.264       .  A
C125        O126   1.263       .  A
C125        C661   1.472       .  S
O126       Cr131   1.994       .  S
O127       Cr131   2.013       .  S
O127        C128   1.265       .  A
C128        C210   1.500       .  S
Cr129       O132   1.771       .  S
Cr130       O132   1.769       .  S
Cr131       O132   1.774       .  S
O133       Cr151   1.976       .  S
O133        C141   1.262       .  A
O134       Cr151   2.007       .  S
O134        C135   1.269       .  A
C135        O136   1.264       .  A
C135        C282   1.477       .  S
O136       Cr152   1.981       .  S
O137       Cr152   2.017       .  S
O137        C138   1.263       .  A
C138        O139   1.256       .  A
C138        C469   1.485       .  S
O139       Cr153   1.975       .  S
O140       Cr153   2.027       .  S
O140        C141   1.271       .  A
C141        C186   1.494       .  S
O142       Cr151   2.004       .  S
O142        C150   1.264       .  A
O143       Cr151   2.007   1_655  S
O143        C144   1.264       .  A
C144        O145   1.263       .  A
C144        C450   1.494       .  S
O145       Cr152   1.996   1_655  S
O146       Cr152   1.967       .  S
O146        C147   1.260       .  A
C147        O148   1.274       .  A
C147        C306   1.487       .  S
O148       Cr153   2.037       .  S
O149       Cr153   1.981       .  S
O149        C150   1.259       .  A
C150        C234   1.492       .  S
Cr151       O154   1.773       .  S
Cr152       O154   1.774       .  S
Cr153       O154   1.773       .  S
O155       Cr173   2.034       .  S
O155        C163   1.275       .  A
O156       Cr173   1.971       .  S
O156        C157   1.256       .  A
C157        O158   1.267       .  A
C157        C426   1.496       .  S
O158       Cr174   2.027       .  S
O159       Cr174   1.985       .  S
O159        C160   1.263       .  A
C160        O161   1.267       .  A
C160        C330   1.484       .  S
O161       Cr175   2.007       .  S
O162       Cr175   1.971       .  S
O162        C163   1.262       .  A
C163        C181   1.500       .  S
O164       Cr173   1.983       .  S
O164        C172   1.257       .  A
O165       Cr173   2.035       .  S
O165        C166   1.274       .  A
C166        O167   1.256       .  A
C166        C354   1.491       .  S
O167       Cr174   1.952       .  S
O168       Cr174   2.008   1_565  S
O168        C169   1.269       .  A
C169        O170   1.266       .  A
C169        C402   1.483       .  S
O170       Cr175   1.997   1_565  S
O171       Cr175   2.019       .  S
O171        C172   1.265       .  A
C172        C205   1.494       .  S
Cr173       O176   1.771       .  S
Cr174       O176   1.771       .  S
Cr175       O176   1.771       .  S
C177        C178   1.412       .  A
C177        C182   1.402       .  A
C177        C191   1.445       .  S
C178        C183   1.499       .  S
C178        C179   1.406       .  A
C179        C180   1.411       .  A
C179        H198   1.086       .  S
C180        C181   1.417       .  A
C180        C192   1.442       .  S
C181        C182   1.409       .  A
C182        H197   1.086       .  S
C183        C184   1.405       .  A
C183        C188   1.412       .  A
C184        C185   1.409       .  A
C184        H199   1.085       .  S
C185        C186   1.416       .  A
C185        C189   1.443       .  S
C186        C187   1.407       .  A
C187        C188   1.404       .  A
C187        H200   1.085       .  S
C188        C190   1.444       .  S
C189        N193   1.157       .  T
C190        N194   1.157       .  T
C191        N196   1.157       .  T
C192        N195   1.157       .  T
C201        C202   1.413       .  A
C201        C206   1.406       .  A
C201        C215   1.443   1_545  S
C202        C207   1.498   1_544  S
C202        C203   1.405       .  A
C203        C204   1.406       .  A
C203        H222   1.085   1_554  S
C204        C205   1.416       .  A
C204        C216   1.444       .  S
C205        C206   1.407       .  A
C206        H221   1.085       .  S
C207        C208   1.403       .  A
C207        C212   1.413   1_565  A
C208        C209   1.405       .  A
C208        H223   1.085       .  S
C209        C210   1.419       .  A
C209        C213   1.444       .  S
C210        C211   1.410   1_565  A
C211        C212   1.407       .  A
C211        H224   1.085       .  S
C212        C214   1.444       .  S
C213        N217   1.157       .  T
C214        N218   1.157       .  T
C215        N220   1.157       .  T
C216        N219   1.157       .  T
C225        C226   1.413       .  A
C225        C230   1.406       .  A
C225        C239   1.444       .  S
C226        C231   1.496   1_556  S
C226        C227   1.403   1_455  A
C227        C228   1.401       .  A
C227        H246   1.084       .  S
C228        C229   1.418       .  A
C228        C240   1.444       .  S
C229        C230   1.408   1_655  A
C230        H245   1.084       .  S
C231        C232   1.406       .  A
C231        C236   1.412       .  A
C232        C233   1.405       .  A
C232        H247   1.085       .  S
C233        C234   1.417       .  A
C233        C237   1.444       .  S
C234        C235   1.407       .  A
C235        C236   1.401       .  A
C235        H248   1.085       .  S
C236        C238   1.444       .  S
C237        N241   1.158       .  T
C238        N242   1.157   1_554  T
C239        N244   1.157       .  T
C240        N243   1.157       .  T
C249        C250   1.410       .  A
C249        C254   1.406       .  A
C249        C263   1.443       .  S
C250        C255   1.492       .  S
C250        C251   1.400       .  A
C251        C252   1.404       .  A
C251        H270   1.085       .  S
C252        C253   1.423       .  A
C252        C264   1.445       .  S
C253        C254   1.411       .  A
C254        H269   1.084       .  S
C255        C256   1.405       .  A
C255        C260   1.409       .  A
C256        C257   1.408       .  A
C256        H271   1.084       .  S
C257        C258   1.417       .  A
C257        C261   1.443       .  S
C258        C259   1.409       .  A
C259        C260   1.401       .  A
C259        H272   1.083       .  S
C260        C262   1.444       .  S
C261        N265   1.157       .  T
C262        N266   1.157       .  T
C263        N268   1.157       .  T
C264        N267   1.158       .  T
C273        C274   1.412       .  A
C273        C278   1.407       .  A
C273        C287   1.443   1_655  S
C274        C279   1.488       .  S
C274        C275   1.401       .  A
C275        C276   1.397       .  A
C275        H294   1.086       .  S
C276        C277   1.415       .  A
C276        C288   1.446       .  S
C277        C278   1.406       .  A
C278        H293   1.085       .  S
C279        C280   1.404   1_655  A
C279        C284   1.411       .  A
C280        C281   1.400       .  A
C280        H295   1.086       .  S
C281        C282   1.411       .  A
C281        C285   1.445       .  S
C282        C283   1.404   1_455  A
C283        C284   1.403       .  A
C283        H296   1.085       .  S
C284        C286   1.443       .  S
C285        N289   1.157       .  T
C286        N290   1.157       .  T
C287        N292   1.157       .  T
C288        N291   1.158       .  T
C297        C298   1.413       .  A
C297        C302   1.403       .  A
C297        C311   1.445       .  S
C298        C303   1.493       .  S
C298        C299   1.403       .  A
C299        C300   1.402       .  A
C299        H318   1.085   1_655  S
C300        C301   1.417       .  A
C300        C312   1.443       .  S
C301        C302   1.408       .  A
C302        H317   1.085       .  S
C303        C304   1.402       .  A
C303        C308   1.415   1_655  A
C304        C305   1.402       .  A
C304        H319   1.085       .  S
C305        C306   1.415   1_655  A
C305        C309   1.442       .  S
C306        C307   1.403       .  A
C307        C308   1.404       .  A
C307        H320   1.084       .  S
C308        C310   1.444       .  S
C309        N313   1.156       .  T
C310        N314   1.157       .  T
C311        N316   1.157       .  T
C312        N315   1.157   1_655  T
C321        C322   1.410       .  A
C321        C326   1.407       .  A
C321        C335   1.443       .  S
C322        C327   1.484       .  S
C322        C323   1.396   1_565  A
C323        C324   1.395       .  A
C323        H342   1.087       .  S
C324        C325   1.422   1_545  A
C324        C336   1.442       .  S
C325        C326   1.409       .  A
C326        H341   1.085       .  S
C327        C328   1.400       .  A
C327        C332   1.409       .  A
C328        C329   1.396   1_565  A
C328        H343   1.086       .  S
C329        C330   1.414       .  A
C329        C333   1.445       .  S
C330        C331   1.408       .  A
C331        C332   1.407   1_545  A
C331        H344   1.085       .  S
C332        C334   1.443       .  S
C333        N337   1.157       .  T
C334        N338   1.157       .  T
C335        N340   1.157       .  T
C336        N339   1.156       .  T
C345        C346   1.407       .  A
C345        C350   1.404       .  A
C345        C359   1.443       .  S
C346        C351   1.478   1_565  S
C346        C347   1.398       .  A
C347        C348   1.395       .  A
C347        H366   1.085   1_565  S
C348        C349   1.417       .  A
C348        C360   1.444       .  S
C349        C350   1.408       .  A
C350        H365   1.084       .  S
C351        C352   1.393   1_545  A
C351        C356   1.409       .  A
C352        C353   1.395       .  A
C352        H367   1.086       .  S
C353        C354   1.423   1_565  A
C353        C357   1.441       .  S
C354        C355   1.408       .  A
C355        C356   1.406       .  A
C355        H368   1.085       .  S
C356        C358   1.443       .  S
C357        N361   1.156       .  T
C358        N362   1.157       .  T
C359        N364   1.157       .  T
C360        N363   1.157       .  T
C369        C370   1.411       .  A
C369        C374   1.401       .  A
C369        C383   1.445       .  S
C370        C375   1.497       .  S
C370        C371   1.407       .  A
C371        C372   1.411       .  A
C371        H390   1.084       .  S
C372        C373   1.415       .  A
C372        C384   1.442       .  S
C373        C374   1.408       .  A
C374        H389   1.084       .  S
C375        C376   1.405       .  A
C375        C380   1.412       .  A
C376        C377   1.405       .  A
C376        H391   1.085       .  S
C377        C378   1.416       .  A
C377        C381   1.444       .  S
C378        C379   1.407       .  A
C379        C380   1.406       .  A
C379        H392   1.085       .  S
C380        C382   1.443       .  S
C381        N385   1.157       .  T
C382        N386   1.157       .  T
C383        N388   1.157       .  T
C384        N387   1.157       .  T
C393        C394   1.410       .  A
C393        C398   1.405       .  A
C393        C407   1.443       .  S
C394        C399   1.488       .  S
C394        C395   1.404       .  A
C395        C396   1.398       .  A
C395        H414   1.085       .  S
C396        C397   1.412       .  A
C396        C408   1.444       .  S
C397        C398   1.406       .  A
C398        H413   1.085       .  S
C399        C400   1.401       .  A
C399        C404   1.412       .  A
C400        C401   1.396       .  A
C400        H415   1.085       .  S
C401        C402   1.414       .  A
C401        C405   1.446       .  S
C402        C403   1.407       .  A
C403        C404   1.409       .  A
C403        H416   1.085       .  S
C404        C406   1.443       .  S
C405        N409   1.157       .  T
C406        N410   1.157       .  T
C407        N412   1.157       .  T
C408        N411   1.157       .  T
C417        C418   1.415       .  A
C417        C422   1.408       .  A
C417        C431   1.443       .  S
C418        C423   1.500       .  S
C418        C419   1.404       .  A
C419        C420   1.404       .  A
C419        H438   1.085       .  S
C420        C421   1.414       .  A
C420        C432   1.441       .  S
C421        C422   1.405       .  A
C422        H437   1.085       .  S
C423        C424   1.406       .  A
C423        C428   1.413       .  A
C424        C425   1.409       .  A
C424        H439   1.085       .  S
C425        C426   1.417       .  A
C425        C429   1.444       .  S
C426        C427   1.408       .  A
C427        C428   1.403       .  A
C427        H440   1.085       .  S
C428        C430   1.444       .  S
C429        N433   1.157       .  T
C430        N434   1.157       .  T
C431        N436   1.157       .  T
C432        N435   1.156       .  T
C441        C442   1.408       .  A
C441        C446   1.406       .  A
C441        C455   1.443       .  S
C442        C447   1.491       .  S
C442        C443   1.404       .  A
C443        C444   1.401       .  A
C443        H462   1.087       .  S
C444        C445   1.416       .  A
C444        C456   1.445       .  S
C445        C446   1.410       .  A
C446        H461   1.086       .  S
C447        C448   1.407       .  A
C447        C452   1.407       .  A
C448        C449   1.412       .  A
C448        H463   1.085       .  S
C449        C450   1.416       .  A
C449        C453   1.443       .  S
C450        C451   1.408       .  A
C451        C452   1.396       .  A
C451        H464   1.085       .  S
C452        C454   1.445       .  S
C453        N457   1.157       .  T
C454        N458   1.157       .  T
C455        N460   1.157       .  T
C456        N459   1.158       .  T
C465        C466   1.410       .  A
C465        C470   1.401       .  A
C465        C479   1.444       .  S
C466        C471   1.482       .  S
C466        C467   1.401       .  A
C467        C468   1.402       .  A
C467        H486   1.083       .  S
C468        C469   1.416       .  A
C468        C480   1.443       .  S
C469        C470   1.406       .  A
C470        H485   1.083       .  S
C471        C472   1.400       .  A
C471        C476   1.410       .  A
C472        C473   1.397       .  A
C472        H487   1.085       .  S
C473        C474   1.414       .  A
C473        C477   1.445       .  S
C474        C475   1.404       .  A
C475        C476   1.405       .  A
C475        H488   1.083       .  S
C476        C478   1.442       .  S
C477        N481   1.157       .  T
C478        N482   1.157       .  T
C479        N484   1.157       .  T
C480        N483   1.157       .  T
C489        C490   1.411       .  A
C489        C494   1.407       .  A
C489        C503   1.444       .  S
C490        C495   1.496       .  S
C490        C491   1.402       .  A
C491        C492   1.406       .  A
C491        H510   1.085       .  S
C492        C493   1.420       .  A
C492        C504   1.444       .  S
C493        C494   1.410       .  A
C494        H509   1.085       .  S
C495        C496   1.403       .  A
C495        C500   1.413       .  A
C496        C497   1.405       .  A
C496        H511   1.085       .  S
C497        C498   1.416       .  A
C497        C501   1.445       .  S
C498        C499   1.404       .  A
C499        C500   1.406       .  A
C499        H512   1.085       .  S
C500        C502   1.443       .  S
C501        N505   1.157       .  T
C502        N506   1.157       .  T
C503        N508   1.157       .  T
C504        N507   1.157       .  T
C513        C514   1.412       .  A
C513        C518   1.397       .  A
C513        C527   1.444       .  S
C514        C519   1.486       .  S
C514        C515   1.408       .  A
C515        C516   1.403       .  A
C515        H534   1.086       .  S
C516        C517   1.409       .  A
C516        C528   1.444       .  S
C517        C518   1.402       .  A
C518        H533   1.086       .  S
C519        C520   1.398       .  A
C519        C524   1.413       .  A
C520        C521   1.393       .  A
C520        H535   1.086       .  S
C521        C522   1.419       .  A
C521        C525   1.445       .  S
C522        C523   1.406       .  A
C523        C524   1.407       .  A
C523        H536   1.085       .  S
C524        C526   1.443       .  S
C525        N529   1.157       .  T
C526        N530   1.157       .  T
C527        N532   1.157       .  T
C528        N531   1.157       .  T
C537        C538   1.411       .  A
C537        C542   1.401       .  A
C537        C551   1.444       .  S
C538        C543   1.495       .  S
C538        C539   1.408       .  A
C539        C540   1.407       .  A
C539        H558   1.084       .  S
C540        C541   1.412       .  A
C540        C552   1.444       .  S
C541        C542   1.406       .  A
C542        H557   1.085       .  S
C543        C544   1.405       .  A
C543        C548   1.410       .  A
C544        C545   1.403       .  A
C544        H559   1.085       .  S
C545        C546   1.418       .  A
C545        C549   1.445       .  S
C546        C547   1.409       .  A
C547        C548   1.405       .  A
C547        H560   1.084       .  S
C548        C550   1.443       .  S
C549        N553   1.158       .  T
C550        N554   1.157       .  T
C551        N556   1.157       .  T
C552        N555   1.157       .  T
C561        C562   1.406       .  A
C561        C566   1.398       .  A
C561        C575   1.444       .  S
C562        C567   1.478       .  S
C562        C563   1.402       .  A
C563        C564   1.401       .  A
C563        H582   1.084       .  S
C564        C565   1.412       .  A
C564        C576   1.444       .  S
C565        C566   1.407       .  A
C566        H581   1.083       .  S
C567        C568   1.399       .  A
C567        C572   1.407       .  A
C568        C569   1.402       .  A
C568        H583   1.086       .  S
C569        C570   1.421       .  A
C569        C573   1.444       .  S
C570        C571   1.408       .  A
C571        C572   1.396       .  A
C571        H584   1.085       .  S
C572        C574   1.445       .  S
C573        N577   1.157       .  T
C574        N578   1.157       .  T
C575        N580   1.157       .  T
C576        N579   1.157       .  T
C585        C586   1.413       .  A
C585        C590   1.407       .  A
C585        C599   1.443       .  S
C586        C591   1.486       .  S
C586        C587   1.397       .  A
C587        C588   1.394       .  A
C587        H606   1.087       .  S
C588        C589   1.420       .  A
C588        C600   1.445       .  S
C589        C590   1.406       .  A
C590        H605   1.085       .  S
C591        C592   1.401       .  A
C591        C596   1.414       .  A
C592        C593   1.397       .  A
C592        H607   1.084       .  S
C593        C594   1.413       .  A
C593        C597   1.443       .  S
C594        C595   1.403       .  A
C595        C596   1.405       .  A
C595        H608   1.084       .  S
C596        C598   1.443       .  S
C597        N601   1.157       .  T
C598        N602   1.157       .  T
C599        N604   1.157       .  T
C600        N603   1.157       .  T
C609        C610   1.409       .  A
C609        C614   1.399       .  A
C609        C623   1.444       .  S
C610        C615   1.486   1_445  S
C610        C611   1.404   1_545  A
C611        C612   1.402       .  A
C611        H630   1.084   1_455  S
C612        C613   1.416   1_565  A
C612        C624   1.445       .  S
C613        C614   1.406       .  A
C614        H629   1.084       .  S
C615        C616   1.405   1_655  A
C615        C620   1.408       .  A
C616        C617   1.404       .  A
C616        H631   1.085   1_565  S
C617        C618   1.415   1_455  A
C617        C621   1.444       .  S
C618        C619   1.406       .  A
C619        C620   1.399       .  A
C619        H632   1.085       .  S
C620        C622   1.444       .  S
C621        N625   1.158       .  T
C622        N626   1.157       .  T
C623        N628   1.157       .  T
C624        N627   1.158       .  T
C633        C634   1.414       .  A
C633        C638   1.406       .  A
C633        C647   1.444       .  S
C634        C639   1.496       .  S
C634        C635   1.405       .  A
C635        C636   1.404       .  A
C635        H654   1.084       .  S
C636        C637   1.412       .  A
C636        C648   1.444       .  S
C637        C638   1.405       .  A
C638        H653   1.084       .  S
C639        C640   1.403       .  A
C639        C644   1.411       .  A
C640        C641   1.407       .  A
C640        H655   1.084       .  S
C641        C642   1.421       .  A
C641        C645   1.443       .  S
C642        C643   1.411       .  A
C643        C644   1.404       .  A
C643        H656   1.084       .  S
C644        C646   1.445       .  S
C645        N649   1.157       .  T
C646        N650   1.157       .  T
C647        N652   1.157       .  T
C648        N651   1.157       .  T
C657        C658   1.410   1_545  A
C657        C662   1.394   1_545  A
C657        C671   1.445       .  S
C658        C663   1.487       .  S
C658        C659   1.408       .  A
C659        C660   1.407       .  A
C659        H678   1.085       .  S
C660        C661   1.409       .  A
C660        C672   1.443       .  S
C661        C662   1.401       .  A
C662        H677   1.084   1_565  S
C663        C664   1.402       .  A
C663        C668   1.408   1_565  A
C664        C665   1.397   1_565  A
C664        H679   1.085       .  S
C665        C666   1.420       .  A
C665        C669   1.445       .  S
C666        C667   1.410       .  A
C667        C668   1.404       .  A
C667        H680   1.084       .  S
C668        C670   1.443   1_545  S
C669        N673   1.158       .  T
C670        N674   1.157       .  T
C671        N676   1.157       .  T
C672        N675   1.157       .  T
C681        C682   1.409       .  A
C681        C686   1.405       .  A
C681        C695   1.444       .  S
C682        C687   1.487       .  S
C682        C683   1.402   1_545  A
C683        C684   1.402       .  A
C683        H702   1.085       .  S
C684        C685   1.416       .  A
C684        C696   1.444       .  S
C685        C686   1.410   1_565  A
C686        H701   1.084       .  S
C687        C688   1.401       .  A
C687        C692   1.410       .  A
C688        C689   1.401       .  A
C688        H703   1.085       .  S
C689        C690   1.415       .  A
C689        C693   1.446       .  S
C690        C691   1.405       .  A
C691        C692   1.406       .  A
C691        H704   1.084       .  S
C692        C694   1.442   1_545  S
C693        N697   1.158       .  T
C694        N698   1.157       .  T
C695        N700   1.157       .  T
C696        N699   1.157       .  T
C705        C706   1.409       .  A
C705        C710   1.404       .  A
C705        C719   1.442       .  S
C706        C711   1.478       .  S
C706        C707   1.398       .  A
C707        C708   1.395       .  A
C707        H726   1.085       .  S
C708        C709   1.414       .  A
C708        C720   1.445       .  S
C709        C710   1.405       .  A
C710        H725   1.084       .  S
C711        C712   1.398       .  A
C711        C716   1.411   1_455  A
C712        C713   1.398       .  A
C712        H727   1.085       .  S
C713        C714   1.415   1_455  A
C713        C717   1.444       .  S
C714        C715   1.401       .  A
C715        C716   1.401       .  A
C715        H728   1.085       .  S
C716        C718   1.444       .  S
C717        N721   1.157       .  T
C718        N722   1.157       .  T
C719        N724   1.157       .  T
C720        N723   1.157       .  T
C729        C730   1.409       .  A
C729        C734   1.405       .  A
C729        C743   1.444       .  S
C730        C735   1.481       .  S
C730        C731   1.396   1_455  A
C731        C732   1.394       .  A
C731        H750   1.086       .  S
C732        C733   1.421   1_655  A
C732        C744   1.443       .  S
C733        C734   1.409       .  A
C734        H749   1.084       .  S
C735        C736   1.400       .  A
C735        C740   1.409   1_455  A
C736        C737   1.392   1_455  A
C736        H751   1.086       .  S
C737        C738   1.414       .  A
C737        C741   1.445       .  S
C738        C739   1.408       .  A
C739        C740   1.406       .  A
C739        H752   1.084       .  S
C740        C742   1.443       .  S
C741        N745   1.157       .  T
C742        N746   1.157       .  T
C743        N748   1.157       .  T
C744        N747   1.157       .  T
