geometry optimzed in LAMMPS
_audit_creation_date              2020-12-01 
_audit_creation_method            'lammps2cif' 
_symmetry_space_group_name_H-M    'P1' 
_symmetry_Int_Tables_number       1 
_symmetry_cell_setting            triclinic 
loop_ 
_symmetry_equiv_pos_as_xyz 
  x,y,z 
_cell_length_a                    43.63237909 
_cell_length_b                    43.59150599051271 
_cell_length_c                    36.572812304123815 
_cell_angle_alpha                 89.89520415167867 
_cell_angle_beta                  89.9131456332314 
_cell_angle_gamma                 120.57700504510456 
loop_ 
_atom_site_label 
_atom_site_type_symbol 
_atom_site_fract_x 
_atom_site_fract_y 
_atom_site_fract_z 
_atom_site_charge 
Fe1        Fe  0.49625260  0.75086917  0.21555620     1.65800
Fe2        Fe  0.52972622  0.71424025  0.27251025     1.73200
Fe3        Fe  0.51752919  0.78240730  0.30112885     1.54400
O4          O  0.53266704  0.82359590  0.26290711    -0.81800
O5          O  0.50500231  0.69974265  0.32229130    -0.80100
O6          O  0.53703985  0.80238379  0.20882880    -0.84300
O7          O  0.46347318  0.76870892  0.23416292    -0.79200
O8          O  0.57019716  0.79851422  0.31064779    -0.81000
O9          O  0.48171028  0.67346057  0.25155664    -0.83700
C10         C  0.45104661  0.77082590  0.26469196     0.97100
C11         C  0.53926607  0.82740211  0.22861864     1.04500
O12         O  0.51478600  0.74911391  0.26332666    -1.12700
O13         O  0.55590282  0.72086263  0.22336878    -0.75100
O14         O  0.52300216  0.73184570  0.18601535    -0.78600
O15         O  0.46504515  0.76970605  0.29471137    -0.79300
C16         C  0.54446504  0.72104132  0.19171473     0.96000
O17         O  0.45536987  0.69989350  0.22355108    -0.77300
O18         O  0.57812174  0.75328123  0.29506727    -0.82400
C19         C  0.49606076  0.71397971  0.34681621     0.98600
C20         C  0.58963345  0.78456351  0.30786697     1.04500
O21         O  0.50081075  0.74516297  0.34366808    -0.78100
C22         C  0.45436900  0.67276479  0.23790409     1.02800
Fe23       Fe  0.84081034  0.92991376  0.43334115     1.65800
Fe24       Fe  0.79455600  0.94805432  0.37286955     1.73200
Fe25       Fe  0.81313621  0.88429994  0.35364898     1.54400
O26         O  0.86223979  0.89121715  0.36593033    -0.81800
O27         O  0.74525940  0.90235070  0.37321294    -0.80100
O28         O  0.88449772  0.92999242  0.41148988    -0.84300
O29         O  0.81789281  0.87663535  0.44485979    -0.79200
O30         O  0.83851841  0.92470819  0.31322202    -0.81000
O31         O  0.78753915  0.96192559  0.42517240    -0.83700
C32         C  0.80024439  0.84706962  0.42818742     0.97100
C33         C  0.88651451  0.90895533  0.38900274     1.04500
O34         O  0.81578888  0.91995021  0.38757600    -1.12700
O35         O  0.84459061  0.99313545  0.37155093    -0.75100
O36         O  0.86624920  0.98439084  0.42369453    -0.78600
O37         O  0.79220222  0.84448275  0.39416822    -0.79300
C38         C  0.86828598  0.00365791  0.39636871     0.96000
O39         O  0.80019138  0.92999458  0.46210159    -0.77300
O40         O  0.79825904  0.93964035  0.31837134    -0.82400
C41         C  0.73711808  0.87575801  0.35244081     0.98600
C42         C  0.82685061  0.94504087  0.30408141     1.04500
O43         O  0.76089991  0.87018447  0.33862098    -0.78100
C44         C  0.78948588  0.95170367  0.45708280     1.02800
Fe45       Fe  0.24951536  0.75051554  0.23079164     1.65800
Fe46       Fe  0.28489313  0.82039777  0.28862113     1.73200
Fe47       Fe  0.21692148  0.73855577  0.31625654     1.54400
O48         O  0.17613711  0.71211434  0.27677485    -0.81800
O49         O  0.29772326  0.81062933  0.33907988    -0.80100
O50         O  0.19846853  0.73962785  0.22349230    -0.84300
O51         O  0.23026016  0.69896954  0.24918707    -0.79200
O52         O  0.19990117  0.77436903  0.32587247    -0.81000
O53         O  0.32652946  0.81302479  0.26960385    -0.83700
C54         C  0.22756143  0.68383070  0.27959631     0.97100
C55         C  0.17296096  0.71577299  0.24240545     1.04500
O56         O  0.25054220  0.77021496  0.27878824    -1.12700
O57         O  0.28058012  0.84073769  0.23918682    -0.75100
O58         O  0.26916254  0.79704658  0.20113926    -0.78600
O59         O  0.23050615  0.69972244  0.30954894    -0.79300
C60         C  0.27996202  0.82945629  0.20731454     0.96000
O61         O  0.30031093  0.76104987  0.23913567    -0.77300
O62         O  0.24406539  0.82852503  0.30879376    -0.82400
C63         C  0.28472056  0.78670005  0.36327224     0.98600
C64         C  0.21268156  0.80775497  0.32163616     1.04500
O65         O  0.25396696  0.75899729  0.35975175    -0.78100
C66         C  0.32741792  0.78696021  0.25424648     1.02800
Fe67       Fe  0.06809973  0.91021485  0.44376177     1.65800
Fe68       Fe  0.04450498  0.84685347  0.38038425     1.73200
Fe69       Fe  0.11052516  0.92957926  0.36190995     1.54400
O70         O  0.10376069  0.97197659  0.37604884    -0.81800
O71         O  0.08846514  0.84032931  0.37746343    -0.80100
O72         O  0.06776411  0.95439577  0.42445466    -0.84300
O73         O  0.12182912  0.94094083  0.45299193    -0.79200
O74         O  0.07046954  0.91540773  0.32251004    -0.81000
O75         O  0.03040391  0.82535416  0.43304389    -0.83700
C76         C  0.15045916  0.95424329  0.43437823     0.97100
C77         C  0.08657039  0.97763212  0.40063370     1.04500
O78         O  0.07556308  0.89596423  0.39613274    -1.12700
O79         O  0.00292440  0.85691715  0.38156354    -0.75100
O80         O  0.01328219  0.88156502  0.43698193    -0.78600
O81         O  0.15147602  0.94863900  0.40023914    -0.79300
C82         C  0.99535227  0.87160705  0.40744026     0.96000
O83         O  0.06802451  0.86799362  0.46920889    -0.77300
O84         O  0.05047625  0.85807710  0.32508818    -0.82400
C85         C  0.11603780  0.85984898  0.35764686     0.98600
C86         C  0.05032285  0.88418874  0.31039806     1.04500
O87         O  0.12310748  0.89053277  0.34556824    -0.78100
C88         C  0.04225853  0.83661752  0.46487206     1.02800
Fe89       Fe  0.24235562  0.50625820  0.23169783     1.65800
Fe90       Fe  0.18312302  0.46755520  0.29884413     1.73200
Fe91       Fe  0.26635538  0.48529468  0.31217947     1.54400
O92         O  0.28270458  0.46238090  0.27218911    -0.81800
O93         O  0.19908926  0.47292418  0.35197482    -0.80100
O94         O  0.26980198  0.48064767  0.21977301    -0.84300
O95         O  0.28922664  0.55021510  0.24703483    -0.79200
O96         O  0.22777732  0.43336397  0.33024183    -0.81000
O97         O  0.19209673  0.51893739  0.29791883    -0.83700
C98         C  0.31365489  0.55503342  0.26907443     0.97100
C99         C  0.28480865  0.46664507  0.23744212     1.04500
O100        O  0.23113242  0.48599223  0.27998579    -1.12700
O101        O  0.15768047  0.45873460  0.24895931    -0.75100
O102        O  0.19756654  0.46410024  0.20888563    -0.78600
O103        O  0.30848284  0.53390949  0.29541404    -0.79300
C104        C  0.16630052  0.45670094  0.21643426     0.96000
O105        O  0.21696381  0.53520557  0.24212749    -0.77300
O106        O  0.17726904  0.41772527  0.29978806    -0.82400
C107        C  0.22354703  0.50227916  0.36365591     0.98600
C108        C  0.19715989  0.40953998  0.31795741     1.04500
O109        O  0.25496697  0.51318385  0.35245990    -0.78100
C110        C  0.20436762  0.54098337  0.27127817     1.02800
Fe111      Fe  0.07532673  0.16376426  0.44186257     1.65800
Fe112      Fe  0.14692668  0.19705025  0.38672724     1.73200
Fe113      Fe  0.06856897  0.18840952  0.35672530     1.54400
O114        O  0.02715745  0.13651736  0.36134976    -0.81800
O115        O  0.15946493  0.24698374  0.36515633    -0.80100
O116        O  0.02420881  0.13490914  0.42161169    -0.84300
O117        O  0.06850432  0.20641731  0.44965512    -0.79200
O118        O  0.08860317  0.17118429  0.31377001    -0.81000
O119        O  0.16602365  0.22206318  0.43616407    -0.83700
C120        C  0.04598836  0.20960396  0.43046694     0.97100
C121        C  0.00976140  0.12384758  0.39069442     1.04500
O122        O  0.09731878  0.18338110  0.39481475    -1.12700
O123        O  0.13601994  0.14708003  0.40679755    -0.75100
O124        O  0.08165495  0.12104740  0.43246010    -0.78600
O125        O  0.04300940  0.20373890  0.39590348    -0.79300
C126        C  0.10777266  0.11949288  0.41894259     0.96000
O127        O  0.12132576  0.18736155  0.47259610    -0.77300
O128        O  0.13668413  0.17353220  0.33695314    -0.82400
C129        C  0.14069758  0.25964795  0.35274676     0.98600
C130        C  0.11413752  0.16495704  0.31179221     1.04500
O131        O  0.10710112  0.24079568  0.34899756    -0.78100
C132        C  0.15397007  0.20956715  0.46747093     1.02800
Fe133      Fe  0.57777239  0.17249613  0.40359648     1.65800
Fe134      Fe  0.61004539  0.13597365  0.46166965     1.73200
Fe135      Fe  0.54061577  0.14719977  0.48662421     1.54400
O136        O  0.55376458  0.19955107  0.48119640    -0.81800
O137        O  0.56937918  0.08637843  0.48110280    -0.80100
O138        O  0.55585817  0.20216828  0.42103205    -0.84300
O139        O  0.52774371  0.13108335  0.39236652    -0.79200
O140        O  0.57586895  0.16392120  0.53126476    -0.81000
O141        O  0.60629140  0.11205416  0.41203839    -0.83700
C142        C  0.50049714  0.12581250  0.41042578     0.97100
C143        C  0.55192750  0.21339351  0.45150926     1.04500
O144        O  0.57605972  0.15138576  0.45090264    -1.12700
O145        O  0.65235224  0.18573973  0.44397845    -0.75100
O146        O  0.62735217  0.21375385  0.41641705    -0.78600
O147        O  0.50172037  0.13191146  0.44491893    -0.79300
C148        C  0.65388156  0.21400132  0.43134659     0.96000
O149        O  0.60080954  0.14880556  0.37493640    -0.77300
O150        O  0.62083557  0.15769746  0.51232082    -0.82400
C151        C  0.53768790  0.07477811  0.49294177     0.98600
C152        C  0.60639094  0.16735000  0.53582192     1.04500
O153        O  0.52409937  0.09445971  0.49593737    -0.78100
C154        C  0.60967832  0.12584556  0.38087875     1.02800
Fe155      Fe  0.40959054  0.83330639  0.62494162     1.65800
Fe156      Fe  0.37308869  0.86508796  0.56600558     1.73200
Fe157      Fe  0.44195802  0.85374617  0.53958393     1.54400
O158        O  0.48251008  0.87005699  0.57923991    -0.81800
O159        O  0.36071436  0.84169069  0.51572400    -0.80100
O160        O  0.45996258  0.87567726  0.63198099    -0.84300
O161        O  0.43023526  0.80244402  0.60776606    -0.79200
O162        O  0.45812800  0.90623446  0.52923400    -0.81000
O163        O  0.33267760  0.81527191  0.58526084    -0.83700
C164        C  0.43078673  0.78847956  0.57769291     0.97100
C165        C  0.48573759  0.87818344  0.61324223     1.04500
O166        O  0.40816385  0.85114324  0.57659343    -1.12700
O167        O  0.37661388  0.89009902  0.61515263    -0.75100
O168        O  0.38801671  0.85834521  0.65367050    -0.78600
O169        O  0.42846551  0.80132513  0.54738860    -0.79300
C170        C  0.37658328  0.87918290  0.64714205     0.96000
O171        O  0.35986048  0.79093390  0.61589437    -0.77300
O172        O  0.41315135  0.91455948  0.54529048    -0.82400
C173        C  0.37460644  0.83179251  0.49177706     0.98600
C174        C  0.44468915  0.92603055  0.53284375     1.04500
O175        O  0.40555227  0.83607166  0.49574907    -0.78100
C176        C  0.33299163  0.78843041  0.59942026     1.02800
Fe177      Fe  0.41626110  0.58977561  0.60862329     1.65800
Fe178      Fe  0.48768675  0.62768111  0.55302240     1.73200
Fe179      Fe  0.40752753  0.55875647  0.52299385     1.54400
O180        O  0.38150849  0.51710994  0.56174450    -0.81800
O181        O  0.47930201  0.63897559  0.50156539    -0.80100
O182        O  0.40750274  0.53937108  0.61552545    -0.84300
O183        O  0.36560772  0.56897908  0.58902031    -0.79200
O184        O  0.44518127  0.54453767  0.51388941    -0.81000
O185        O  0.47743484  0.66766094  0.56987220    -0.83700
C186        C  0.35072457  0.56600970  0.55859484     0.97100
C187        C  0.38441239  0.51385686  0.59621942     1.04500
O188        O  0.43755841  0.59224819  0.56128700    -1.12700
O189        O  0.50731230  0.62547511  0.60388143    -0.75100
O190        O  0.46129232  0.61062283  0.63976420    -0.78600
O191        O  0.36692498  0.56964080  0.52872028    -0.79300
C192        C  0.49419996  0.62350509  0.63518831     0.96000
O193        O  0.42506994  0.64010216  0.60027848    -0.77300
O194        O  0.49795903  0.58823913  0.53454886    -0.82400
C195        C  0.45592789  0.62675478  0.47702492     0.98600
C196        C  0.47829047  0.55768174  0.51976912     1.04500
O197        O  0.42761387  0.59652467  0.48033644    -0.78100
C198        C  0.45069580  0.66745182  0.58487231     1.02800
Fe199      Fe  0.57834020  0.40946159  0.40749080     1.65800
Fe200      Fe  0.51380181  0.38812740  0.46929039     1.73200
Fe201      Fe  0.59682594  0.45260287  0.48894620     1.54400
O202        O  0.63894797  0.44523040  0.47757044    -0.81800
O203        O  0.50972769  0.43321947  0.46916216    -0.80100
O204        O  0.62383297  0.41212960  0.42741577    -0.84300
O205        O  0.60671333  0.46304906  0.39659521    -0.79200
O206        O  0.58091792  0.41205311  0.52890480    -0.81000
O207        O  0.49223198  0.37297066  0.41756047    -0.83700
C208        C  0.62042421  0.49195449  0.41469896     0.97100
C209        C  0.64588514  0.42958937  0.45254096     1.04500
O210        O  0.56349862  0.41754165  0.45433911    -1.12700
O211        O  0.52048200  0.34450795  0.46968046    -0.75100
O212        O  0.55121676  0.35482987  0.41708647    -0.78600
O213        O  0.61713021  0.49328758  0.44939268    -0.79300
C214        C  0.53445734  0.33517804  0.44457709     0.96000
O215        O  0.53576479  0.40671895  0.37988292    -0.77300
O216        O  0.52534737  0.39635873  0.52383448    -0.82400
C217        C  0.52922032  0.46063555  0.48882453     0.98600
C218        C  0.54869847  0.39140672  0.53802615     1.04500
O219        O  0.55845575  0.46624443  0.50315190    -0.78100
C220        C  0.50375397  0.38282373  0.38540859     1.02800
Fe221      Fe  0.17049522  0.57368297  0.60511099     1.65800
Fe222      Fe  0.13403652  0.51448806  0.53748796     1.73200
Fe223      Fe  0.14983051  0.59746050  0.52476181     1.54400
O224        O  0.12530731  0.61222467  0.56435919    -0.81800
O225        O  0.14202335  0.52983308  0.48330017    -0.80100
O226        O  0.14542001  0.60155012  0.61655683    -0.84300
O227        O  0.21526832  0.62045528  0.58943888    -0.79200
O228        O  0.09924912  0.55864066  0.50530143    -0.81000
O229        O  0.18531947  0.52401440  0.54018453    -0.83700
C230        C  0.21966182  0.64499435  0.56752596     0.97100
C231        C  0.13013825  0.61518548  0.59892433     1.04500
O232        O  0.15106450  0.56229860  0.55642791    -1.12700
O233        O  0.12368222  0.48914429  0.58823538    -0.75100
O234        O  0.12765961  0.52898077  0.62755273    -0.78600
O235        O  0.19780987  0.63977921  0.54207445    -0.79300
C236        C  0.12108699  0.49783410  0.62064053     0.96000
O237        O  0.19855413  0.54762927  0.59627767    -0.77300
O238        O  0.08366628  0.50719267  0.53400589    -0.82400
C239        C  0.16813781  0.55766739  0.47011306     0.98600
C240        C  0.07563878  0.52715787  0.51573551     1.04500
O241        O  0.17812825  0.58778604  0.48436450    -0.78100
C242        C  0.20620337  0.53626836  0.56753173     1.02800
Fe243      Fe  0.82805246  0.42171146  0.40058518     1.65800
Fe244      Fe  0.86662771  0.48670202  0.46226193     1.73200
Fe245      Fe  0.85109212  0.40545999  0.48378337     1.54400
O246        O  0.80119345  0.36185256  0.47339922    -0.81800
O247        O  0.91768222  0.49489338  0.46246523    -0.80100
O248        O  0.78648821  0.37436893  0.41958768    -0.84300
O249        O  0.85686965  0.39716828  0.39092941    -0.79200
O250        O  0.82547547  0.42065890  0.52292910    -0.81000
O251        O  0.87137859  0.50783218  0.41033447    -0.83700
C252        C  0.86947260  0.38217207  0.41083444     0.97100
C253        C  0.78006202  0.35369044  0.44657994     1.04500
O254        O  0.84918704  0.43745866  0.44792832    -1.12700
O255        O  0.81399633  0.47440194  0.46278728    -0.75100
O256        O  0.79656779  0.44423213  0.40981816    -0.78600
O257        O  0.87184156  0.38493061  0.44570652    -0.79300
C258        C  0.79043782  0.45749765  0.43821874     0.96000
O259        O  0.86693348  0.46629635  0.37346924    -0.77300
O260        O  0.86505366  0.47634856  0.51689117    -0.82400
C261        C  0.92668438  0.47625558  0.48200517     0.98600
C262        C  0.83708338  0.45272564  0.53197953     1.04500
O263        O  0.90357258  0.44615262  0.49625812    -0.78100
C264        C  0.87195147  0.49718039  0.37839911     1.02800
Fe265      Fe  0.49513092  0.25060626  0.77608190     1.65800
Fe266      Fe  0.46082952  0.28081681  0.71325681     1.73200
Fe267      Fe  0.47294359  0.21330544  0.69158419     1.54400
O268        O  0.52133180  0.21786175  0.70353288    -0.81800
O269        O  0.40928361  0.23898141  0.70925776    -0.80100
O270        O  0.53617297  0.24413564  0.75777058    -0.84300
O271        O  0.46428719  0.19653180  0.78393389    -0.79200
O272        O  0.50075657  0.25437830  0.65320602    -0.81000
O273        O  0.45283586  0.29377642  0.76510593    -0.83700
C274        C  0.45063268  0.16928954  0.76322188     0.97100
C275        C  0.54205874  0.22962206  0.73077674     1.04500
O276        O  0.47574300  0.24729347  0.72776130    -1.12700
O277        O  0.51343351  0.32092621  0.71690545    -0.75100
O278        O  0.52854125  0.30518791  0.76943820    -0.78600
O279        O  0.44910801  0.17083412  0.72842274    -0.79300
C280        C  0.53564827  0.32654521  0.74250121     0.96000
O281        O  0.45688338  0.25695368  0.80302565    -0.77300
O282        O  0.46604427  0.27671460  0.65795233    -0.82400
C283        C  0.39972432  0.21146111  0.68939634     0.98600
C284        C  0.49124674  0.27583966  0.64227562     1.04500
O285        O  0.42205432  0.20323794  0.67662612    -0.78100
C286        C  0.45122589  0.28223230  0.79713476     1.02800
Fe287      Fe  0.15597818  0.07650824  0.56274295     1.65800
Fe288      Fe  0.19137518  0.04957547  0.62700861     1.73200
Fe289      Fe  0.17655216  0.11580425  0.64607542     1.54400
O290        O  0.20013348  0.15791057  0.60845722    -0.81800
O291        O  0.18625908  0.05526564  0.68202066    -0.80100
O292        O  0.18290920  0.13052358  0.55399538    -0.84300
O293        O  0.11237713  0.07884423  0.57978886    -0.79200
O294        O  0.22795416  0.12727206  0.66228282    -0.81000
O295        O  0.13924421  0.00918056  0.62479694    -0.83700
C296        C  0.10665591  0.09554836  0.60467663     0.97100
C297        C  0.19689492  0.15838892  0.57373175     1.04500
O298        O  0.17525282  0.08177534  0.61122284    -1.12700
O299        O  0.19947877  0.03580943  0.57514138    -0.75100
O300        O  0.19776167  0.07474186  0.53858624    -0.78600
O301        O  0.12768233  0.10985890  0.63154588    -0.79300
C302        C  0.20293042  0.04907383  0.54358065     0.96000
O303        O  0.12592301  0.02147948  0.56961155    -0.77300
O304        O  0.24224153  0.09216840  0.63037294    -0.82400
C305        C  0.16015754  0.05475434  0.69733131     0.98600
C306        C  0.25091550  0.11936787  0.65045449     1.04500
O307        O  0.14909179  0.07474838  0.68532938    -0.78100
C308        C  0.11743947  0.00244683  0.59864734     1.02800
Fe309      Fe  0.73595649  0.24503309  0.77719026     1.65800
Fe310      Fe  0.71006598  0.17973086  0.71530347     1.73200
Fe311      Fe  0.77641277  0.26145066  0.69410713     1.54400
O312        O  0.77123681  0.30478331  0.70581982    -0.81800
O313        O  0.75362722  0.17272923  0.71275949    -0.80100
O314        O  0.74045512  0.29169133  0.75760033    -0.84300
O315        O  0.78983203  0.27132597  0.78639735    -0.79200
O316        O  0.73531091  0.24683411  0.65544853    -0.81000
O317        O  0.69586095  0.15853901  0.76731095    -0.83700
C318        C  0.81800015  0.28445565  0.76695489     0.97100
C319        C  0.75703364  0.31285931  0.73137856     1.04500
O320        O  0.74181470  0.22912788  0.72983513    -1.12700
O321        O  0.66814573  0.18963859  0.71681012    -0.75100
O322        O  0.68145128  0.22049082  0.76925660    -0.78600
O323        O  0.81795629  0.28067260  0.73221572    -0.79300
C324        C  0.66111743  0.20574353  0.74177486     0.96000
O325        O  0.73109149  0.20128367  0.80485628    -0.77300
O326        O  0.71706462  0.19059591  0.66059521    -0.82400
C327        C  0.78071533  0.19149312  0.69213090     0.98600
C328        C  0.71360371  0.21486829  0.64641427     1.04500
O329        O  0.78762000  0.22166849  0.67899619    -0.78100
C330        C  0.70644720  0.16954605  0.79936895     1.02800
Fe331      Fe  0.90923799  0.08034189  0.55682742     1.65800
Fe332      Fe  0.94523085  0.15058297  0.61322477     1.73200
Fe333      Fe  0.87686915  0.06939053  0.64173392     1.54400
O334        O  0.83618768  0.04351894  0.60215814    -0.81800
O335        O  0.95860257  0.14037106  0.66288584    -0.80100
O336        O  0.85923991  0.07227299  0.54949878    -0.84300
O337        O  0.88750721  0.02877881  0.57528030    -0.79200
O338        O  0.86080058  0.10548152  0.65144744    -0.81000
O339        O  0.98597744  0.14246865  0.59324980    -0.83700
C340        C  0.88603264  0.01415975  0.60558852     0.97100
C341        C  0.83357073  0.04789340  0.56782399     1.04500
O342        O  0.91050549  0.10058511  0.60426725    -1.12700
O343        O  0.93954114  0.17008008  0.56375111    -0.75100
O344        O  0.93189041  0.12678576  0.52711920    -0.78600
O345        O  0.89005762  0.03046486  0.63540000    -0.79300
C346        C  0.94191662  0.15908218  0.53257363     0.96000
O347        O  0.95885242  0.08845094  0.56669390    -0.77300
O348        O  0.90566529  0.15949206  0.63512023    -0.82400
C349        C  0.94534312  0.11654367  0.68714740     0.98600
C350        C  0.87437196  0.13900189  0.64822230     1.04500
O351        O  0.91404334  0.08960545  0.68457603    -0.78100
C352        C  0.98616710  0.11500183  0.58075760     1.02800
Fe353      Fe  0.74715427  0.49545422  0.77606180     1.65800
Fe354      Fe  0.81182530  0.53279204  0.71322708     1.73200
Fe355      Fe  0.73055760  0.51656493  0.69186226     1.54400
O356        O  0.68846218  0.46659048  0.70308084    -0.81800
O357        O  0.81961472  0.58374938  0.71036468    -0.80100
O358        O  0.69938687  0.45351602  0.75847654    -0.84300
O359        O  0.72325127  0.52476469  0.78489967    -0.79200
O360        O  0.74611195  0.49220946  0.65183076    -0.81000
O361        O  0.83325790  0.54000848  0.76485405    -0.83700
C362        C  0.70788829  0.53664239  0.76468620     0.97100
C363        C  0.67933611  0.44647683  0.73089649     1.04500
O364        O  0.76267861  0.51530279  0.72772534    -1.12700
O365        O  0.80018135  0.48021979  0.71549568    -0.75100
O366        O  0.76938167  0.46360320  0.76839042    -0.78600
O367        O  0.70949504  0.53719613  0.72972632    -0.79300
C368        C  0.78330049  0.45718892  0.74076297     0.96000
O369        O  0.79167894  0.53499795  0.80211517    -0.77300
O370        O  0.80292306  0.52961482  0.65817657    -0.82400
C371        C  0.80047595  0.59202173  0.69075011     0.98600
C372        C  0.77785169  0.50457250  0.64094526     1.04500
O373        O  0.77004202  0.56857971  0.67809895    -0.78100
C374        C  0.82286532  0.54119766  0.79671560     1.02800
Fe375      Fe  0.90536599  0.84040489  0.56762989     1.65800
Fe376      Fe  0.84008607  0.79791680  0.62886026     1.73200
Fe377      Fe  0.92224109  0.81576775  0.64965654     1.54400
O378        O  0.94184985  0.79426873  0.61110664    -0.81800
O379        O  0.85064743  0.80263278  0.68382295    -0.80100
O380        O  0.93565493  0.81750019  0.55863626    -0.84300
O381        O  0.94910480  0.88483928  0.58851122    -0.79200
O382        O  0.88298144  0.76418493  0.66535851    -0.81000
O383        O  0.84826268  0.84896204  0.62774884    -0.83700
C384        C  0.97149323  0.88851752  0.61271279     0.97100
C385        C  0.94784874  0.80123235  0.57691089     1.04500
O386        O  0.88968639  0.81753135  0.61463556    -1.12700
O387        O  0.81986572  0.79043846  0.57598114    -0.75100
O388        O  0.86401123  0.79832728  0.54063024    -0.78600
O389        O  0.96475983  0.86501438  0.63684275    -0.79300
C390        C  0.83218293  0.79090631  0.54445831     0.96000
O391        O  0.87698371  0.86641166  0.57407066    -0.77300
O392        O  0.83425413  0.74789279  0.63147441    -0.82400
C393        C  0.87541855  0.83015474  0.69863537     0.98600
C394        C  0.85296162  0.74025376  0.65242854     1.04500
O395        O  0.90733025  0.84122339  0.68894647    -0.78100
C396        C  0.86235047  0.87154385  0.60179655     1.02800
Fe397      Fe  0.49129795  0.75684806  0.73665528     1.65800
Fe398      Fe  0.52720373  0.81809399  0.80316572     1.73200
Fe399      Fe  0.51185803  0.73593941  0.81887755     1.54400
O400        O  0.46308727  0.69351828  0.80479918    -0.81800
O401        O  0.57828250  0.82660323  0.80661145    -0.80100
O402        O  0.44819071  0.70845591  0.75247761    -0.84300
O403        O  0.51928682  0.73173301  0.72576873    -0.79200
O404        O  0.48478722  0.74779648  0.85917000    -0.81000
O405        O  0.53639720  0.84223621  0.75255374    -0.83700
C406        C  0.53232219  0.71660013  0.74469139     0.97100
C407        C  0.44236839  0.68614809  0.77780236     1.04500
O408        O  0.51068759  0.76990331  0.78542699    -1.12700
O409        O  0.47486054  0.80659915  0.80040761    -0.75100
O410        O  0.46049866  0.78004427  0.74549699    -0.78600
O411        O  0.53459364  0.71835076  0.77961786    -0.79300
C412        C  0.45294117  0.79187565  0.77401778     0.96000
O413        O  0.53212574  0.80255470  0.71291365    -0.77300
O414        O  0.52136536  0.80532481  0.85772234    -0.82400
C415        C  0.58646750  0.80675575  0.82503780     0.98600
C416        C  0.49532696  0.77850575  0.87212571     1.04500
O417        O  0.56302281  0.77531773  0.83566256    -0.78100
C418        C  0.53868256  0.83364601  0.72016763     1.02800
Fe419      Fe  0.83197595  0.90815104  0.94804751     1.65800
Fe420      Fe  0.79297901  0.84529908  0.88408566     1.73200
Fe421      Fe  0.81014454  0.92791520  0.86600243     1.54400
O422        O  0.78762502  0.94610233  0.90435549    -0.81800
O423        O  0.79932051  0.85685256  0.82886705    -0.80100
O424        O  0.80757968  0.93703539  0.95749464    -0.84300
O425        O  0.87665200  0.95347372  0.92977186    -0.79200
O426        O  0.75883618  0.88899121  0.84935463    -0.81000
O427        O  0.84454720  0.85516851  0.88618271    -0.83700
C428        C  0.88152927  0.97632134  0.90548133     0.97100
C429        C  0.79248124  0.95024798  0.93884038     1.04500
O430        O  0.81126727  0.89425373  0.89998165    -1.12700
O431        O  0.78386177  0.82291469  0.93635261    -0.75100
O432        O  0.78929026  0.86519568  0.97291832    -0.78600
O433        O  0.85924244  0.97018036  0.88022915    -0.79300
C434        C  0.78211924  0.83356021  0.96808641     0.96000
O435        O  0.85951570  0.88118733  0.94107586    -0.77300
O436        O  0.74263381  0.83868431  0.88078353    -0.82400
C437        C  0.82477268  0.88370856  0.81350374     0.98600
C438        C  0.73492998  0.85840871  0.86147292     1.04500
O439        O  0.83608001  0.91468357  0.82614496    -0.78100
C440        C  0.86686776  0.86977655  0.91215327     1.02800
Fe441      Fe  0.25291053  0.50266749  0.72577937     1.65800
Fe442      Fe  0.27800430  0.46354593  0.78790176     1.73200
Fe443      Fe  0.21040396  0.47627079  0.80772639     1.54400
O444        O  0.21693448  0.52546142  0.79745653    -0.81800
O445        O  0.23478926  0.41196602  0.78824920    -0.80100
O446        O  0.24725136  0.54375590  0.74535018    -0.84300
O447        O  0.19970653  0.47393069  0.71488182    -0.79200
O448        O  0.24985259  0.50174497  0.84845718    -0.81000
O449        O  0.29440966  0.45882275  0.73616633    -0.83700
C450        C  0.17092974  0.45855649  0.73322714     0.97100
C451        C  0.23105509  0.54802675  0.77186700     1.04500
O452        O  0.24615342  0.48032345  0.77296371    -1.12700
O453        O  0.31909530  0.51657285  0.78827998    -0.75100
O454        O  0.30715510  0.53408933  0.73505737    -0.78600
O455        O  0.16982662  0.45493443  0.76807877    -0.79300
C456        C  0.32656562  0.54007977  0.76334055     0.96000
O457        O  0.25833001  0.46422612  0.69864244    -0.77300
O458        O  0.26887176  0.46480897  0.84249506    -0.82400
C459        C  0.20654285  0.40221793  0.80730676     0.98600
C460        C  0.27128977  0.49165003  0.85784371     1.04500
O461        O  0.19872233  0.42459225  0.82065129    -0.78100
C462        C  0.28347999  0.45839116  0.70411891     1.02800
Fe463      Fe  0.08037959  0.16258957  0.94054586     1.65800
Fe464      Fe  0.04195082  0.19425609  0.88463953     1.73200
Fe465      Fe  0.10899310  0.18175610  0.85403084     1.54400
O466        O  0.15112862  0.19778063  0.89177467    -0.81800
O467        O  0.02631071  0.16882234  0.83593625    -0.80100
O468        O  0.13096876  0.20516668  0.94524105    -0.84300
O469        O  0.10047605  0.13175989  0.92120996    -0.79200
O470        O  0.12536461  0.23402906  0.84385615    -0.81000
O471        O  0.00217982  0.14574792  0.90734379    -0.83700
C472        C  0.10029546  0.11769147  0.89085842     0.97100
C473        C  0.15571358  0.20641853  0.92567123     1.04500
O474        O  0.07697052  0.17986811  0.89274514    -1.12700
O475        O  0.04988195  0.22136128  0.93314263    -0.75100
O476        O  0.05929488  0.18756062  0.97076704    -0.78600
O477        O  0.09517560  0.12932515  0.86116252    -0.79300
C478        C  0.04868133  0.20919855  0.96477853     0.96000
O479        O  0.03034902  0.12032219  0.93375481    -0.77300
O480        O  0.08067390  0.24247342  0.86038545    -0.82400
C481        C  0.03931678  0.15929691  0.81073592     0.98600
C482        C  0.11181617  0.25371236  0.84697798     1.04500
O483        O  0.07073052  0.16440310  0.81228356    -0.78100
C484        C  0.00250332  0.11862258  0.92065900     1.02800
Fe485      Fe  0.24062688  0.74157384  0.73437363     1.65800
Fe486      Fe  0.17323522  0.70868614  0.79476295     1.73200
Fe487      Fe  0.25298431  0.77681821  0.81957538     1.54400
O488        O  0.29724231  0.77257723  0.80930454    -0.81800
O489        O  0.16329889  0.75028808  0.79901627    -0.80100
O490        O  0.28800058  0.74862923  0.75398302    -0.84300
O491        O  0.26410443  0.79561971  0.72717959    -0.79200
O492        O  0.23776975  0.73557446  0.85800192    -0.81000
O493        O  0.15400707  0.69624278  0.74209429    -0.83700
C494        C  0.27777719  0.82240595  0.74843279     0.97100
C495        C  0.30743141  0.76224132  0.78191778     1.04500
O496        O  0.22272388  0.74323783  0.78229194    -1.12700
O497        O  0.18625132  0.66925033  0.79126952    -0.75100
O498        O  0.21929513  0.68706973  0.73994222    -0.78600
O499        O  0.27373466  0.82002672  0.78318157    -0.79300
C500        C  0.20425830  0.66495869  0.76624193     0.96000
O501        O  0.19659024  0.73522655  0.70657408    -0.77300
O502        O  0.18041956  0.71128082  0.85020786    -0.82400
C503        C  0.18111811  0.77757186  0.81952588     0.98600
C504        C  0.20616655  0.71219776  0.86659549     1.04500
O505        O  0.21154614  0.78587081  0.83283373    -0.78100
C506        C  0.16554331  0.70886133  0.71066482     1.02800
Fe507      Fe  0.08234240  0.92529042  0.93697663     1.65800
Fe508      Fe  0.14405179  0.94629092  0.87214029     1.73200
Fe509      Fe  0.06073493  0.88026782  0.85668273     1.54400
O510        O  0.04219451  0.84048825  0.89766733    -0.81800
O511        O  0.12996216  0.93635723  0.81826483    -0.80100
O512        O  0.05413301  0.87248868  0.94937185    -0.84300
O513        O  0.03592562  0.92231615  0.91934717    -0.79200
O514        O  0.09900804  0.86705427  0.84036485    -0.81000
O515        O  0.13597668  0.98920889  0.87196869    -0.83700
C516        C  0.01273704  0.90307273  0.89576480     0.97100
C517        C  0.03938647  0.84307233  0.93235523     1.04500
O518        O  0.09522075  0.91632942  0.88951343    -1.12700
O519        O  0.16776306  0.96267038  0.92315628    -0.75100
O520        O  0.12586044  0.92763324  0.96173817    -0.78600
O521        O  0.01905637  0.88714203  0.87057072    -0.79300
C522        C  0.15746942  0.95205206  0.95552210     0.96000
O523        O  0.10909326  0.97950515  0.92665185    -0.77300
O524        O  0.14933205  0.90185675  0.87158155    -0.82400
C525        C  0.10594224  0.94079817  0.80503259     0.98600
C526        C  0.12947388  0.87403393  0.85253762     1.04500
O527        O  0.07418909  0.92004343  0.81572651    -0.78100
C528        C  0.12295095  0.99851475  0.89807375     1.02800
Fe529      Fe  0.58965108  0.42400257  0.89540870     1.65800
Fe530      Fe  0.61319107  0.48701441  0.95895519     1.73200
Fe531      Fe  0.54705355  0.40422013  0.97741359     1.54400
O532        O  0.50631326  0.38473338  0.93845090    -0.81800
O533        O  0.60521669  0.47502170  0.01361351    -0.80100
O534        O  0.53602396  0.39550909  0.88520199    -0.84300
O535        O  0.58690279  0.37788410  0.91334811    -0.79200
O536        O  0.53437129  0.44344052  0.99272284    -0.81000
O537        O  0.65541218  0.47790928  0.95817451    -0.83700
C538        C  0.56837730  0.35486879  0.93751360     0.97100
C539        C  0.50736237  0.38098995  0.90385203     1.04500
O540        O  0.58232491  0.43786071  0.94315569    -1.12700
O541        O  0.62817906  0.50953348  0.90715045    -0.75100
O542        O  0.59165904  0.46730293  0.87001999    -0.78600
O543        O  0.55354775  0.36164904  0.96370487    -0.79300
C544        C  0.61627445  0.49902284  0.87528628     0.96000
O545        O  0.64456622  0.45051973  0.90380515    -0.77300
O546        O  0.56945877  0.49342054  0.96073510    -0.82400
C547        C  0.60762619  0.45027946  0.02842961     0.98600
C548        C  0.54177489  0.47414903  0.98035062     1.04500
O549        O  0.58699142  0.41855544  0.01772387    -0.78100
C550        C  0.66393545  0.46405581  0.93221489     1.02800
Fe551      Fe  0.40362528  0.58239274  0.10107979     1.65800
Fe552      Fe  0.37682112  0.51668921  0.03942208     1.73200
Fe553      Fe  0.44245987  0.59880569  0.01730944     1.54400
O554        O  0.43626481  0.64184322  0.02921904    -0.81800
O555        O  0.42045756  0.51026952  0.03590954    -0.80100
O556        O  0.40693445  0.62857675  0.08198798    -0.84300
O557        O  0.45778720  0.60986161  0.10928383    -0.79200
O558        O  0.40162216  0.58333985  0.97866459    -0.81000
O559        O  0.36445326  0.49592222  0.09180932    -0.83700
C560        C  0.48539736  0.62359666  0.08898498     0.97100
C561        C  0.42278215  0.64987882  0.05565072     1.04500
O562        O  0.40840544  0.56645567  0.05326677    -1.12700
O563        O  0.33426024  0.52493201  0.04257070    -0.75100
O564        O  0.34877450  0.55681339  0.09448943    -0.78600
O565        O  0.48450310  0.61925452  0.05438590    -0.79300
C566        C  0.32708190  0.53989811  0.06852126     0.96000
O567        O  0.40055546  0.53925234  0.12823829    -0.77300
O568        O  0.38070183  0.52597412  0.98400033    -0.82400
C569        C  0.44777428  0.52916733  0.01578011     0.98600
C570        C  0.38110312  0.55172524  0.96787688     1.04500
O571        O  0.45466387  0.55934277  0.00250733    -0.78100
C572        C  0.37610208  0.50731000  0.12348594     1.02800
Fe573      Fe  0.57149952  0.16631089  0.89076547     1.65800
Fe574      Fe  0.50179945  0.13443392  0.94871536     1.73200
Fe575      Fe  0.58242768  0.14737140  0.97722563     1.54400
O576        O  0.60792766  0.13127941  0.93912221    -0.81800
O577        O  0.51193136  0.15775536  0.99865738    -0.80100
O578        O  0.58059852  0.12488718  0.88573637    -0.84300
O579        O  0.62269101  0.19885011  0.90859417    -0.79200
O580        O  0.54516193  0.09499258  0.98819371    -0.81000
O581        O  0.51158216  0.18399489  0.92897092    -0.83700
C582        C  0.63738523  0.21228419  0.93876012     0.97100
C583        C  0.60408601  0.12352953  0.90503686     1.04500
O584        O  0.55154333  0.14911406  0.93915974    -1.12700
O585        O  0.48085985  0.10903617  0.89972292    -0.75100
O586        O  0.52531021  0.13908905  0.86137586    -0.78600
O587        O  0.62240406  0.19945329  0.96919805    -0.79300
C588        C  0.49265820  0.11832273  0.86765103     0.96000
O589        O  0.56302181  0.20803685  0.89740950    -0.77300
O590        O  0.49179025  0.08534839  0.97001873    -0.82400
C591        C  0.53591413  0.16914463  0.02257425     0.98600
C592        C  0.51175354  0.07467513  0.98386485     1.04500
O593        O  0.56313293  0.16581092  0.01940145    -0.78100
C594        C  0.53852472  0.21058230  0.91358808     1.02800
Fe595      Fe  0.41390946  0.83105791  0.10804032     1.65800
Fe596      Fe  0.47530361  0.86938492  0.04250981     1.73200
Fe597      Fe  0.39227323  0.85043580  0.02555128     1.54400
O598        O  0.35036593  0.80075552  0.04021654    -0.81800
O599        O  0.48113236  0.91941705  0.04089904    -0.80100
O600        O  0.36686306  0.78711335  0.09233095    -0.84300
O601        O  0.38743046  0.85783176  0.11820697    -0.79200
O602        O  0.40622315  0.82366414  0.98630614    -0.81000
O603        O  0.49915477  0.87758033  0.09310073    -0.83700
C604        C  0.37223696  0.87080455  0.09922165     0.97100
C605        C  0.34421505  0.78011113  0.06728494     1.04500
O606        O  0.42662383  0.85074756  0.05961014    -1.12700
O607        O  0.46539302  0.81747017  0.04392482    -0.75100
O608        O  0.43865806  0.80150037  0.09889859    -0.78600
O609        O  0.37355672  0.87257782  0.06423689    -0.79300
C610        C  0.45057039  0.79473102  0.06983164     0.96000
O611        O  0.45847241  0.87298240  0.13147452    -0.77300
O612        O  0.46157954  0.86484816  0.98871612    -0.82400
C613        C  0.46112488  0.92689436  0.02182674     0.98600
C614        C  0.43808530  0.83550849  0.97608660     1.04500
O615        O  0.43095834  0.90265583  0.00901249    -0.78100
C616        C  0.48967084  0.87955033  0.12521611     1.02800
Fe617      Fe  0.16220122  0.57976164  0.11487812     1.65800
Fe618      Fe  0.12556575  0.61248979  0.05801853     1.73200
Fe619      Fe  0.13698972  0.54351659  0.03189789     1.54400
O620        O  0.18949549  0.55724298  0.03658719    -0.81800
O621        O  0.07568496  0.57138839  0.03888930    -0.80100
O622        O  0.19123356  0.55740780  0.09677229    -0.84300
O623        O  0.12002490  0.53016056  0.12545291    -0.79200
O624        O  0.15308988  0.57905357  0.98728294    -0.81000
O625        O  0.10217001  0.60862701  0.10838198    -0.83700
C626        C  0.11630597  0.50330999  0.10793063     0.97100
C627        C  0.20322220  0.55494512  0.06611477     1.04500
O628        O  0.14120183  0.57865812  0.06791640    -1.12700
O629        O  0.17558584  0.65450253  0.07540366    -0.75100
O630        O  0.20375025  0.62912633  0.10210507    -0.78600
O631        O  0.12258952  0.50456077  0.07347881    -0.79300
C632        C  0.20388366  0.65578734  0.08750567     0.96000
O633        O  0.13971692  0.60343498  0.14427188    -0.77300
O634        O  0.14763808  0.62414336  0.00729448    -0.82400
C635        C  0.06412007  0.53954601  0.02731605     0.98600
C636        C  0.15745428  0.61008794  0.98349734     1.04500
O637        O  0.08416630  0.52644793  0.02381818    -0.78100
C638        C  0.11698399  0.61265581  0.13905795     1.02800
Fe639      Fe  0.82212481  0.40935454  0.89414081     1.65800
Fe640      Fe  0.85459662  0.37401985  0.95383370     1.73200
Fe641      Fe  0.84303336  0.44342805  0.97865791     1.54400
O642        O  0.85975809  0.48354642  0.93841574    -0.81800
O643        O  0.82950097  0.36149576  0.00319098    -0.80100
O644        O  0.86390846  0.45999886  0.88566434    -0.84300
O645        O  0.79116945  0.43028544  0.91063293    -0.79200
O646        O  0.89531966  0.45926635  0.98951550    -0.81000
O647        O  0.80594521  0.33283027  0.93372468    -0.83700
C648        C  0.77902966  0.43452680  0.94042529     0.97100
C649        C  0.86676624  0.48604490  0.90413534     1.04500
O650        O  0.84033717  0.40896018  0.94243427    -1.12700
O651        O  0.88079956  0.37835515  0.90522019    -0.75100
O652        O  0.84785819  0.38786163  0.86643607    -0.78600
O653        O  0.79111607  0.43151499  0.97087744    -0.79300
C654        C  0.86963347  0.37763176  0.87321671     0.96000
O655        O  0.78036624  0.35930781  0.90425030    -0.77300
O656        O  0.90342151  0.41383918  0.97569024    -0.82400
C657        C  0.81909950  0.37556615  0.02638807     0.98600
C658        C  0.91498614  0.44557960  0.98738363     1.04500
O659        O  0.82431559  0.40691043  0.02241249    -0.78100
C660        C  0.77875601  0.33229848  0.91974014     1.02800
Fe661      Fe  0.91736551  0.83958478  0.07053325     1.65800
Fe662      Fe  0.94222971  0.79844213  0.13080789     1.73200
Fe663      Fe  0.87696478  0.81411371  0.15354090     1.54400
O664        O  0.88362235  0.86391487  0.14372787    -0.81800
O665        O  0.89819626  0.74782066  0.13153901    -0.80100
O666        O  0.91274101  0.88115285  0.09083651    -0.84300
O667        O  0.86367024  0.81176756  0.06090631    -0.79200
O668        O  0.91775191  0.83873693  0.19315043    -0.81000
O669        O  0.95674219  0.79297642  0.07834641    -0.83700
C670        C  0.83549976  0.79721746  0.08033202     0.97100
C671        C  0.89675092  0.88580427  0.11735467     1.04500
O672        O  0.91134743  0.81706461  0.11750139    -1.12700
O673        O  0.98482175  0.85001324  0.13053835    -0.75100
O674        O  0.97183481  0.86964970  0.07912177    -0.78600
O675        O  0.83540453  0.79351762  0.11511626    -0.79300
C676        C  0.99269608  0.87332448  0.10546129     0.96000
O677        O  0.92173915  0.80113995  0.04172715    -0.77300
O678        O  0.93544096  0.80068686  0.18597356    -0.82400
C679        C  0.87099746  0.73886225  0.15186962     0.98600
C680        C  0.93878874  0.82783107  0.20170018     1.04500
O681        O  0.86451866  0.76190457  0.16606284    -0.78100
C682        C  0.94598997  0.79381672  0.04650791     1.02800
Fe683      Fe  0.73222560  0.49445309  0.27995607     1.65800
Fe684      Fe  0.70685573  0.53194214  0.21618596     1.73200
Fe685      Fe  0.77222574  0.51536984  0.19676067     1.54400
O686        O  0.81420778  0.53926461  0.23427610    -0.81800
O687        O  0.71058702  0.52464098  0.16112870    -0.80100
O688        O  0.78598810  0.51978303  0.28818748    -0.84300
O689        O  0.73295960  0.44987309  0.26267566    -0.79200
O690        O  0.78406072  0.56622927  0.17870543    -0.81000
O691        O  0.66451823  0.48086653  0.21995185    -0.83700
C692        C  0.75140771  0.44528019  0.23883417     0.97100
C693        C  0.81413347  0.53473607  0.26886263     1.04500
O694        O  0.73790380  0.51418935  0.23147305    -1.12700
O695        O  0.69490139  0.54196023  0.26843777    -0.75100
O696        O  0.73256394  0.53721374  0.30418532    -0.78600
O697        O  0.76653873  0.46689646  0.21244240    -0.79300
C698        C  0.70809313  0.54420363  0.29982567     0.96000
O699        O  0.67715526  0.46602980  0.27423587    -0.77300
O700        O  0.75062692  0.58208951  0.21115485    -0.82400
C701        C  0.71167734  0.49947482  0.14538560     0.98600
C702        C  0.77718597  0.58985989  0.19032397     1.04500
O703        O  0.73151653  0.48829305  0.15765178    -0.78100
C704        C  0.65689827  0.45921462  0.24652795     1.02800
Fe705      Fe  0.90550607  0.07582718  0.06382923     1.65800
Fe706      Fe  0.84468299  0.05186207  0.13032285     1.73200
Fe707      Fe  0.92745262  0.11976316  0.14463391     1.54400
O708        O  0.96944763  0.11267222  0.13079931    -0.81800
O709        O  0.83680294  0.09480718  0.13229165    -0.80100
O710        O  0.95261468  0.08003681  0.08008614    -0.84300
O711        O  0.93248164  0.12933548  0.05150277    -0.79200
O712        O  0.91479409  0.08085394  0.18579084    -0.81000
O713        O  0.82060108  0.03492534  0.07958420    -0.83700
C714        C  0.94843498  0.15820349  0.06962629     0.97100
C715        C  0.97538731  0.09716247  0.10475392     1.04500
O716        O  0.89299796  0.08357552  0.11211344    -1.12700
O717        O  0.85561166  0.01078850  0.12955719    -0.75100
O718        O  0.88082487  0.02120104  0.07400548    -0.78600
O719        O  0.94602549  0.15965940  0.10440875    -0.79300
C720        C  0.86933334  0.00249308  0.10323465     0.96000
O721        O  0.86062055  0.07186184  0.04063114    -0.77300
O722        O  0.85776201  0.06073221  0.18461076    -0.82400
C723        C  0.85666555  0.12353288  0.15016564     0.98600
C724        C  0.88391082  0.06058246  0.19874823     1.04500
O725        O  0.88837667  0.13248044  0.16039901    -0.78100
C726        C  0.82980478  0.04599997  0.04717948     1.02800
Fe727      Fe  0.74346909  0.25094762  0.28590219     1.65800
Fe728      Fe  0.81201355  0.28682741  0.22635259     1.73200
Fe729      Fe  0.73043390  0.21705637  0.20093278     1.54400
O730        O  0.70638835  0.17671808  0.24116250    -0.81800
O731        O  0.80038378  0.29823668  0.17649120    -0.80100
O732        O  0.73428548  0.20045450  0.29382164    -0.84300
O733        O  0.69157990  0.23041680  0.26923000    -0.79200
O734        O  0.76744474  0.20196749  0.19002840    -0.81000
O735        O  0.80368318  0.32787364  0.24535683    -0.83700
C736        C  0.67580405  0.22727480  0.23929279     0.97100
C737        C  0.71041525  0.17444161  0.27559261     1.04500
O738        O  0.76229210  0.25164969  0.23746770    -1.12700
O739        O  0.83373135  0.28364824  0.27529255    -0.75100
O740        O  0.79068504  0.27271148  0.31410414    -0.78600
O741        O  0.69001774  0.22816080  0.20875199    -0.79300
C742        C  0.82309316  0.28418713  0.30723935     0.96000
O743        O  0.75205422  0.30095999  0.27656446    -0.77300
O744        O  0.82132789  0.24713446  0.20542132    -0.82400
C745        C  0.77572931  0.28514047  0.15331735     0.98600
C746        C  0.80101946  0.21560765  0.19292174     1.04500
O747        O  0.74852351  0.25408077  0.15723090    -0.78100
C748        C  0.77716223  0.32811617  0.26046434     1.02800
Fe749      Fe  0.49645358  0.24584086  0.28312970     1.65800
Fe750      Fe  0.45914647  0.17840264  0.22268954     1.73200
Fe751      Fe  0.47507457  0.26178159  0.20014779     1.54400
O752        O  0.46220588  0.28670032  0.24216502    -0.81800
O753        O  0.48265889  0.19097810  0.17274946    -0.80100
O754        O  0.45709703  0.25698082  0.29381854    -0.84300
O755        O  0.52924604  0.29777719  0.26681871    -0.79200
O756        O  0.42200484  0.22742460  0.19037109    -0.81000
O757        O  0.50748887  0.18349932  0.24063088    -0.83700
C758        C  0.54133535  0.31409469  0.23688271     0.97100
C759        C  0.45587228  0.28169598  0.27657774     1.04500
O760        O  0.47634245  0.22820118  0.23512095    -1.12700
O761        O  0.43389916  0.15617945  0.27194007    -0.75100
O762        O  0.46922355  0.19830151  0.31042657    -0.78600
O763        O  0.52806221  0.29933080  0.20663011    -0.79300
C764        C  0.44619629  0.16634018  0.30373537     0.96000
O765        O  0.53588224  0.23526797  0.27123313    -0.77300
O766        O  0.41096580  0.17223142  0.20232554    -0.82400
C767        C  0.49336652  0.21582302  0.14969424     0.98600
C768        C  0.40105220  0.19388272  0.19134766     1.04500
O769        O  0.49015975  0.24296203  0.15463712    -0.78100
C770        C  0.53562488  0.20923419  0.25510668     1.02800
Fe771      Fe  0.15620094  0.08061103  0.05723365     1.65800
Fe772      Fe  0.19395876  0.15141424  0.11293495     1.73200
Fe773      Fe  0.18033000  0.07045870  0.14069620     1.54400
O774        O  0.12764390  0.03178027  0.13620966    -0.81800
O775        O  0.24330365  0.16044563  0.13355173    -0.80100
O776        O  0.12646331  0.02890999  0.07615691    -0.84300
O777        O  0.19762941  0.07285215  0.04705571    -0.79200
O778        O  0.16458092  0.09098375  0.18458921    -0.81000
O779        O  0.21844090  0.17009212  0.06285048    -0.83700
C780        C  0.20088655  0.04974177  0.06511064     0.97100
C781        C  0.11435668  0.01476695  0.10703726     1.04500
O782        O  0.17738574  0.10134265  0.10392982    -1.12700
O783        O  0.14417628  0.14317788  0.09459920    -0.75100
O784        O  0.11532723  0.08848421  0.06968702    -0.78600
O785        O  0.19423322  0.04491294  0.09961732    -0.79300
C786        C  0.11547329  0.11527852  0.08369729     0.96000
O787        O  0.17994180  0.12698933  0.02732628    -0.77300
O788        O  0.17138296  0.14171991  0.16313560    -0.82400
C789        C  0.25384383  0.13969654  0.14580590     0.98600
C790        C  0.16074795  0.11802916  0.18748002     1.04500
O791        O  0.23310952  0.10629092  0.14880861    -0.78100
C792        C  0.20420841  0.15892523  0.03201442     1.02800
C793        C  0.31794031  0.18954201  0.15079457    -0.21500
C794        C  0.29164914  0.15394304  0.15738371    -0.09500
C795        C  0.30200648  0.13154030  0.17485140     0.29400
C796        C  0.33733465  0.14454303  0.18542934    -0.21500
C797        C  0.36356715  0.18013083  0.17909482    -0.09500
C798        C  0.35340056  0.20253152  0.16131536     0.29400
F799        F  0.37770134  0.23704422  0.15354493    -0.20000
H800        H  0.31117067  0.20736140  0.13721164     0.17700
H801        H  0.34403505  0.12664243  0.19895373     0.17700
F802        F  0.27804067  0.09683466  0.18220255    -0.20000
C803        C  0.61109291  0.19581998  0.22180397    -0.21500
C804        C  0.63989234  0.22255461  0.24154103    -0.09500
C805        C  0.63363982  0.24288843  0.26688833     0.29400
C806        C  0.59950425  0.23708374  0.27200659    -0.21500
C807        C  0.57041502  0.21077192  0.25211922    -0.09500
C808        C  0.57647193  0.18967725  0.22720043     0.29400
F809        F  0.54927531  0.16361124  0.20770943    -0.20000
H810        H  0.61530512  0.17923902  0.20280377     0.17700
H811        H  0.59607891  0.25388817  0.29140065     0.17700
F812        F  0.66084702  0.26902543  0.28637427    -0.20000
C813        C  0.04124203  0.13106583  0.11562631    -0.21500
C814        C  0.01095797  0.10083837  0.10146858    -0.09500
C815        C  0.01555955  0.07624171  0.08099255     0.29400
C816        C  0.04958480  0.08192279  0.07464869    -0.21500
C817        C  0.08011636  0.11226842  0.08843851    -0.09500
C818        C  0.07550614  0.13684773  0.10915466     0.29400
F819        F  0.10388000  0.16632359  0.12338171    -0.20000
H820        H  0.03848936  0.15068887  0.13095449     0.17700
H821        H  0.05183028  0.06212532  0.05902896     0.17700
F822        F  0.98714399  0.04641564  0.06722898    -0.20000
C823        C  0.86583424  0.18283332  0.17123667    -0.21500
C824        C  0.84251459  0.14733914  0.16031280    -0.09500
C825        C  0.80575190  0.13495472  0.15994964     0.29400
C826        C  0.79293224  0.15735547  0.17032892    -0.21500
C827        C  0.81614439  0.19287601  0.18137461    -0.09500
C828        C  0.85297495  0.20537352  0.18149210     0.29400
F829        F  0.87671857  0.23934685  0.19142343    -0.20000
H830        H  0.89428078  0.19334374  0.17171414     0.17700
H831        H  0.76442903  0.14649930  0.16997297     0.17700
F832        F  0.78187348  0.10085034  0.15046268    -0.20000
C833        C  0.78813014  0.41659941  0.22863894    -0.21500
C834        C  0.75756043  0.41492358  0.24368275    -0.09500
C835        C  0.73565903  0.38615092  0.26686322     0.29400
C836        C  0.74332094  0.35916322  0.27335702    -0.21500
C837        C  0.77329567  0.36015630  0.25750198    -0.09500
C838        C  0.79629355  0.38991691  0.23588947     0.29400
F839        F  0.82667966  0.39343079  0.22177634    -0.20000
H840        H  0.80630626  0.43909990  0.21184938     0.17700
H841        H  0.72514628  0.33702140  0.29050049     0.17700
F842        F  0.70647368  0.38370550  0.28306264    -0.20000
C843        C  0.58402498  0.36700230  0.27290236    -0.21500
C844        C  0.57038839  0.35170728  0.23851692    -0.09500
C845        C  0.58336783  0.37326354  0.20705752     0.29400
C846        C  0.61012858  0.40901025  0.21011110    -0.21500
C847        C  0.62451989  0.42376777  0.24443937    -0.09500
C848        C  0.61072931  0.40251739  0.27592345     0.29400
F849        F  0.62334780  0.41579965  0.30970405    -0.20000
H850        H  0.57420414  0.35144340  0.29775082     0.17700
H851        H  0.62055510  0.42472390  0.18542305     0.17700
F852        F  0.57062874  0.35991205  0.17335958    -0.20000
C853        C  0.04046019  0.92426112  0.14032602    -0.21500
C854        C  0.02682949  0.90699794  0.10682357    -0.09500
C855        C  0.04345649  0.92439218  0.07410551     0.29400
C856        C  0.07213121  0.95905922  0.07477366    -0.21500
C857        C  0.08481550  0.97735292  0.10801662    -0.09500
C858        C  0.06922290  0.95932450  0.14102727     0.29400
F859        F  0.08095906  0.97570513  0.17380868    -0.20000
H860        H  0.02774845  0.91127577  0.16580027     0.17700
H861        H  0.08396227  0.97176315  0.04892244     0.17700
F862        F  0.03147338  0.90810278  0.04128800    -0.20000
C863        C  0.87003077  0.95443049  0.14098594    -0.21500
C864        C  0.87383913  0.97097242  0.10679477    -0.09500
C865        C  0.88564202  0.95939410  0.07680960     0.29400
C866        C  0.89418972  0.93284961  0.08120598    -0.21500
C867        C  0.89081561  0.91649766  0.11532085    -0.09500
C868        C  0.87822697  0.92735636  0.14526625     0.29400
F869        F  0.87407561  0.91213759  0.17870286    -0.20000
H870        H  0.86127564  0.96284131  0.16463374     0.17700
H871        H  0.90275875  0.92453184  0.05732262     0.17700
F872        F  0.88895930  0.97355111  0.04292038    -0.20000
C873        C  0.85216175  0.67412011  0.14581647    -0.21500
C874        C  0.84630931  0.70052386  0.16049073    -0.09500
C875        C  0.81679451  0.68983766  0.18388198     0.29400
C876        C  0.79448209  0.65398665  0.19286900    -0.21500
C877        C  0.80072981  0.62764533  0.17895167    -0.09500
C878        C  0.82970704  0.63810992  0.15481377     0.29400
F879        F  0.83665338  0.61376457  0.13994000    -0.20000
H880        H  0.87433553  0.68130385  0.12751892     0.17700
H881        H  0.77239613  0.64698293  0.21122868     0.17700
F882        F  0.80942038  0.71391766  0.19865227    -0.20000
C883        C  0.81208992  0.36824327  0.09407900    -0.21500
C884        C  0.80109779  0.35378294  0.05926369    -0.09500
C885        C  0.77695131  0.31676369  0.05600956     0.29400
C886        C  0.76656352  0.29432458  0.08681497    -0.21500
C887        C  0.78039011  0.30843216  0.12132241    -0.09500
C888        C  0.80204389  0.34593943  0.12474100     0.29400
F889        F  0.81499684  0.36115299  0.15769442    -0.20000
H890        H  0.83048784  0.39654174  0.09733685     0.17700
H891        H  0.74945535  0.26584941  0.08332805     0.17700
F892        F  0.76447735  0.30213456  0.02271280    -0.20000
C893        C  0.01485461  0.48308865  0.99946920    -0.21500
C894        C  0.02577661  0.51576618  0.01739331    -0.09500
C895        C  0.99961176  0.52427988  0.02623072     0.29400
C896        C  0.96388035  0.50103435  0.01694859    -0.21500
C897        C  0.95302273  0.46857195  0.99867793    -0.09500
C898        C  0.97910919  0.45980168  0.99024576     0.29400
F899        F  0.97040941  0.42914943  0.97240699    -0.20000
H900        H  0.03412417  0.47545263  0.99222085     0.17700
H901        H  0.94459831  0.50866728  0.02414466     0.17700
F902        F  0.00829701  0.55483156  0.04422481    -0.20000
C903        C  0.26830339  0.69242676  0.10315929    -0.21500
C904        C  0.23902581  0.68895110  0.08347018    -0.09500
C905        C  0.24485768  0.71546249  0.05771336     0.33000
C906        C  0.27928846  0.74434980  0.05163605    -0.21500
C907        C  0.30854181  0.74763024  0.07127574    -0.09500
C908        C  0.30253026  0.72127448  0.09730681     0.29400
F909        F  0.32968874  0.72308164  0.11713598    -0.20000
H910        H  0.26484318  0.67250625  0.12308865     0.17700
H911        H  0.28292347  0.76448196  0.03190999     0.17700
F912        F  0.21757619  0.71320515  0.03777935    -0.20000
C913        C  0.50978988  0.20303475  0.05089429    -0.21500
C914        C  0.53069841  0.18688040  0.05474110    -0.09500
C915        C  0.54329468  0.18548647  0.08959280     0.29400
C916        C  0.53289625  0.19747983  0.12008246    -0.21500
C917        C  0.51019911  0.21153623  0.11642006    -0.09500
C918        C  0.49979549  0.21545411  0.08136133     0.29400
F919        F  0.47765675  0.22849250  0.07679800    -0.20000
H920        H  0.49998987  0.20482148  0.02435982     0.17700
H921        H  0.54128423  0.19432344  0.14688020     0.17700
F922        F  0.56338545  0.17019469  0.09465485    -0.20000
C923        C  0.70231054  0.24236216  0.95137903    -0.21500
C924        C  0.67320155  0.24352906  0.93691110    -0.09500
C925        C  0.67901291  0.27251624  0.91523468     0.29400
C926        C  0.71345007  0.30041195  0.90872874    -0.21500
C927        C  0.74302212  0.29990927  0.92336884    -0.09500
C928        C  0.73709901  0.27018303  0.94443061     0.29400
F929        F  0.76467336  0.26789555  0.95837977    -0.20000
H930        H  0.69812470  0.21940803  0.96700252     0.17700
H931        H  0.71678653  0.32268176  0.89244896     0.17700
F932        F  0.65119923  0.27380618  0.90032667    -0.20000
C933        C  0.51302652  0.02843756  0.02322434    -0.21500
C934        C  0.49643515  0.03688181  0.99520501    -0.09500
C935        C  0.46760768  0.00889468  0.97664743     0.29400
C936        C  0.45619105  0.97335077  0.98562780    -0.21500
C937        C  0.47326367  0.96486939  0.01321124    -0.09500
C938        C  0.50163607  0.99301088  0.03226533     0.29400
F939        F  0.51841810  0.98650522  0.05979535    -0.20000
H940        H  0.53519287  0.04943038  0.03809266     0.17700
H941        H  0.43435962  0.95242630  0.97036489     0.17700
F942        F  0.45156781  0.01576330  0.94864946    -0.20000
C943        C  0.27404018  0.53402037  0.03555959    -0.21500
C944        C  0.29292182  0.53932696  0.06834027    -0.09500
C945        C  0.28080411  0.54783076  0.10027865     0.29400
C946        C  0.25160077  0.55247373  0.09898936    -0.21500
C947        C  0.23358519  0.54880452  0.06600520    -0.09500
C948        C  0.24461752  0.53876742  0.03428732     0.29400
F949        F  0.22725298  0.53373620  0.00210480    -0.20000
H950        H  0.28278205  0.52741999  0.01059039     0.17700
H951        H  0.24351285  0.55963359  0.12405628     0.17700
F952        F  0.29745671  0.55230079  0.13285758    -0.20000
C953        C  0.42037802  0.73105517  0.08946625    -0.21500
C954        C  0.44481415  0.75815792  0.06598010    -0.09500
C955        C  0.46049488  0.74885321  0.03770506     0.29400
C956        C  0.45211507  0.71339828  0.03353834    -0.21500
C957        C  0.42789884  0.68638605  0.05734537    -0.09500
C958        C  0.41192166  0.69577050  0.08527640     0.29400
F959        F  0.38816086  0.67100093  0.10892060    -0.20000
H960        H  0.40719750  0.73695502  0.11103215     0.17700
H961        H  0.46529299  0.70730054  0.01214670     0.17700
F962        F  0.48432612  0.77393715  0.01439934    -0.20000
C963        C  0.66163346  0.49671508  0.06062858    -0.21500
C964        C  0.63556483  0.46038239  0.05726295    -0.09500
C965        C  0.63782404  0.43587388  0.08077092     0.29400
C966        C  0.66452682  0.44805445  0.10801096    -0.21500
C967        C  0.68938353  0.48473143  0.11200978    -0.09500
C968        C  0.68790680  0.50868634  0.08739185     0.29400
F969        F  0.71134037  0.54423638  0.09006594    -0.20000
H970        H  0.66156749  0.51646498  0.04266262     0.17700
H971        H  0.66456948  0.42910042  0.12715974     0.17700
F972        F  0.61357310  0.40055616  0.07848751    -0.20000
C973        C  0.57806839  0.31048290  0.90383913    -0.21500
C974        C  0.56166537  0.31797917  0.93284927    -0.09500
C975        C  0.53558329  0.28918859  0.95369622     0.29400
C976        C  0.52671296  0.25417188  0.94584785    -0.21500
C977        C  0.54359231  0.24684619  0.91726935    -0.09500
C978        C  0.56924021  0.27554783  0.89605423     0.29400
F979        F  0.58598457  0.27002037  0.86771834    -0.20000
H980        H  0.59765985  0.33175217  0.88664573     0.17700
H981        H  0.50717684  0.23278044  0.96293428     0.17700
F982        F  0.51818640  0.29460070  0.98142914    -0.20000
C983        C  0.71178776  0.45743213  0.90300938    -0.21500
C984        C  0.69661723  0.46174386  0.93501012    -0.09500
C985        C  0.71005543  0.45892521  0.96908594     0.29400
C986        C  0.73686727  0.45018837  0.97082650    -0.21500
C987        C  0.75096032  0.44434064  0.93871842    -0.09500
C988        C  0.73864699  0.44907258  0.90464746     0.29400
F989        F  0.75200692  0.44514089  0.87258806    -0.20000
H990        H  0.70222474  0.45972349  0.87641586     0.17700
H991        H  0.74615433  0.44742555  0.99736561     0.17700
F992        F  0.69608212  0.46271107  0.00075639    -0.20000
C993        C  0.52609794  0.52239754  0.97829707    -0.21500
C994        C  0.51768306  0.48813489  0.98982294    -0.09500
C995        C  0.48620104  0.46779190  0.01041891     0.29400
C996        C  0.46390115  0.48131142  0.01870928    -0.21500
C997        C  0.47214768  0.51542465  0.00687661    -0.09500
C998        C  0.50385810  0.53596382  0.98669719     0.29400
F999        F  0.51373617  0.56935060  0.97510820    -0.20000
H1000       H  0.55011277  0.53896376  0.96269251     0.17700
H1001       H  0.43993813  0.46479744  0.03441216     0.17700
F1002       F  0.47662551  0.43466133  0.02259140    -0.20000
C1003       C  0.20880018  0.00759377  0.98040066    -0.21500
C1004       C  0.18074854  0.97255598  0.98670716    -0.09500
C1005       C  0.16979943  0.96175847  0.02309833     0.29400
C1006       C  0.18206395  0.98706096  0.05120343    -0.21500
C1007       C  0.20487143  0.02337829  0.04329344    -0.09500
C1008       C  0.22058712  0.03293688  0.00833598     0.29400
F1009       F  0.24350866  0.06764681  0.99982925    -0.20000
H1010       H  0.21846696  0.01668444  0.95287583     0.17700
H1011       H  0.16970341  0.97885081  0.07794415     0.17700
F1012       F  0.14407168  0.92776065  0.03087708    -0.20000
C1013       C  0.00077412  0.79828322  0.01966273    -0.21500
C1014       C  0.96574602  0.79112583  0.01446691    -0.09500
C1015       C  0.95378448  0.78949366  0.97834580     0.29400
C1016       C  0.97769938  0.79943912  0.94885193    -0.21500
C1017       C  0.01406819  0.81246754  0.95500117    -0.09500
C1018       C  0.02482081  0.80925927  0.99038006     0.29400
F1019       F  0.05985545  0.82248921  0.99767619    -0.20000
H1020       H  0.01095746  0.79972223  0.04693574     0.17700
H1021       H  0.96883328  0.80221505  0.92206675     0.17700
F1022       F  0.92009436  0.78207720  0.97176381    -0.20000
C1023       C  0.16824279  0.65023792  0.89003211    -0.21500
C1024       C  0.19786444  0.68472148  0.89514836    -0.09500
C1025       C  0.21704183  0.69224941  0.92792840     0.29400
C1026       C  0.20529569  0.66633303  0.95567313    -0.21500
C1027       C  0.17489599  0.63231182  0.95088662    -0.09500
C1028       C  0.15712624  0.62411919  0.91733859     0.29400
F1029       F  0.12732074  0.59192945  0.91212104    -0.20000
H1030       H  0.15287569  0.64379336  0.86505333     0.17700
H1031       H  0.21891687  0.67338138  0.98176210     0.17700
F1032       F  0.24519933  0.72531715  0.93430588    -0.20000
C1033       C  0.13904326  0.80008349  0.80804572    -0.21500
C1034       C  0.16673449  0.80116643  0.82865047    -0.09500
C1035       C  0.18178634  0.82634931  0.85715993     0.29400
C1036       C  0.16965928  0.84984943  0.86443144    -0.21500
C1037       C  0.14215690  0.84896958  0.84378851    -0.09500
C1038       C  0.12690577  0.82372127  0.81534982     0.29400
F1039       F  0.10087954  0.82235252  0.79389747    -0.20000
H1040       H  0.12720688  0.78139527  0.78572160     0.17700
H1041       H  0.18173373  0.86865123  0.88662951     0.17700
F1042       F  0.20817883  0.82829740  0.87844687    -0.20000
C1043       C  0.11891336  0.04481632  0.86123330    -0.21500
C1044       C  0.12189183  0.03173701  0.89540165    -0.09500
C1045       C  0.11870904  0.04775307  0.92740087     0.29400
C1046       C  0.11171305  0.07540641  0.92523734    -0.21500
C1047       C  0.10757547  0.08797764  0.89126481    -0.09500
C1048       C  0.11166042  0.07264449  0.85905799     0.29400
F1049       F  0.10820591  0.08405696  0.82560579    -0.20000
H1050       H  0.12072999  0.03250966  0.83618336     0.17700
H1051       H  0.10916861  0.08674255  0.95061955     0.17700
F1052       F  0.12170799  0.03629923  0.96105042    -0.20000
C1053       C  0.19580248  0.22662735  0.97949538    -0.21500
C1054       C  0.18691228  0.20972082  0.94525132    -0.09500
C1055       C  0.19767461  0.18495848  0.93726642     0.29400
C1056       C  0.20936990  0.17173151  0.96548110    -0.21500
C1057       C  0.21167738  0.18394876  0.00143752    -0.09500
C1058       C  0.20833676  0.21397184  0.00750200     0.29400
F1059       F  0.21072437  0.22677804  0.04183335    -0.20000
H1060       H  0.18823620  0.24608979  0.98616453     0.17700
H1061       H  0.21218147  0.14883704  0.96013783     0.17700
F1062       F  0.19072612  0.16869824  0.90418352    -0.20000
C1063       C  0.01134488  0.20228907  0.05843541    -0.21500
C1064       C  0.97562900  0.18955847  0.04898085    -0.09500
C1065       C  0.96807658  0.19576920  0.01325346     0.29400
C1066       C  0.99471129  0.20890855  0.98629188    -0.21500
C1067       C  0.02885216  0.21492221  0.99440458    -0.09500
C1068       C  0.03771053  0.21424987  0.03124312     0.29400
F1069       F  0.07063579  0.22070769  0.04026636    -0.20000
H1070       H  0.01787347  0.19765740  0.08560700     0.17700
H1071       H  0.98713790  0.20923342  0.95821130     0.17700
F1072       F  0.93396464  0.18419077  0.00320998    -0.20000
C1073       C  0.32991471  0.55164272  0.93593575    -0.21500
C1074       C  0.35710937  0.54320216  0.93612068    -0.09500
C1075       C  0.35650893  0.51972320  0.90965632     0.29400
C1076       C  0.32877155  0.50390551  0.88455462    -0.21500
C1077       C  0.30053107  0.51081498  0.88495302    -0.09500
C1078       C  0.30178403  0.53564422  0.91045158     0.29400
F1079       F  0.27515597  0.54307457  0.91198213    -0.20000
H1080       H  0.32936907  0.56896449  0.95677753     0.17700
H1081       H  0.32933209  0.48567821  0.86484841     0.17700
F1082       F  0.38228586  0.51100793  0.90895098    -0.20000
C1083       C  0.14991544  0.35346914  0.83510873    -0.21500
C1084       C  0.18165598  0.36380118  0.81554423    -0.09500
C1085       C  0.18903052  0.33722702  0.80494052     0.29400
C1086       C  0.16567070  0.30160678  0.81445772    -0.21500
C1087       C  0.13436344  0.29140733  0.83477753    -0.09500
C1088       C  0.12657182  0.31783501  0.84465037     0.29400
F1089       F  0.09706181  0.30961297  0.86453404    -0.20000
H1090       H  0.14319564  0.37309723  0.84361352     0.17700
H1091       H  0.17249494  0.28198521  0.80620057     0.17700
F1092       F  0.21905453  0.34550629  0.78597810    -0.20000
C1093       C  0.20589965  0.58306710  0.79928918    -0.21500
C1094       C  0.22635159  0.57933872  0.77177503    -0.09500
C1095       C  0.23890933  0.60371291  0.74246697     0.29400
C1096       C  0.23058828  0.63055505  0.74056754    -0.21500
C1097       C  0.20980948  0.63413837  0.76781618    -0.09500
C1098       C  0.19767970  0.61009807  0.79742767     0.29400
F1099       F  0.17797879  0.61254708  0.82469479    -0.20000
H1100       H  0.19564915  0.56464587  0.82211933     0.17700
H1101       H  0.24083699  0.64879763  0.71758695     0.17700
F1102       F  0.25886799  0.60154023  0.71519830    -0.20000
C1103       C  0.97052292  0.05363371  0.93498455    -0.21500
C1104       C  0.97002307  0.08283978  0.91905565    -0.09500
C1105       C  0.94027205  0.07640539  0.89816927     0.29400
C1106       C  0.91229102  0.04154745  0.89278340    -0.21500
C1107       C  0.91311490  0.01243545  0.90835198    -0.09500
C1108       C  0.94250947  0.01888625  0.92976573     0.29400
F1109       F  0.94452663  0.99166395  0.94534245    -0.20000
H1110       H  0.99301662  0.05749968  0.95105679     0.17700
H1111       H  0.88958408  0.03742565  0.87690285     0.17700
F1112       F  0.93831883  0.10354414  0.88234313    -0.20000
C1113       C  0.92853634  0.89436384  0.93607068    -0.21500
C1114       C  0.90344801  0.87586264  0.90838903    -0.09500
C1115       C  0.91505084  0.86742721  0.87599520     0.29400
C1116       C  0.95084812  0.87763323  0.87155505    -0.21500
C1117       C  0.97596516  0.89646972  0.89912931    -0.09500
C1118       C  0.96426057  0.90459236  0.93162464     0.29400
F1119       F  0.98700780  0.92169101  0.95963376    -0.20000
H1120       H  0.92068438  0.90151494  0.96129194     0.17700
H1121       H  0.95882317  0.87042660  0.84645223     0.17700
F1122       F  0.89207445  0.84965861  0.84836538    -0.20000
C1123       C  0.76892160  0.96449387  0.99330324    -0.21500
C1124       C  0.78511069  0.97506886  0.95881842    -0.09500
C1125       C  0.80706055  0.01164561  0.95145249     0.29400
C1126       C  0.81787360  0.03631544  0.98005387    -0.21500
C1127       C  0.80668785  0.02477598  0.01616604    -0.09500
C1128       C  0.77936794  0.98909561  0.02184460     0.29400
F1129       F  0.76657496  0.97662940  0.05587562    -0.20000
H1130       H  0.75194917  0.93642174  0.99950126     0.17700
H1131       H  0.83831955  0.06366293  0.97460311     0.17700
F1132       F  0.82320217  0.02279745  0.91836212    -0.20000
C1133       C  0.79582186  0.77135263  0.02711520    -0.21500
C1134       C  0.80285206  0.78939549  0.06059244    -0.09500
C1135       C  0.79021568  0.81299463  0.06588424     0.29400
C1136       C  0.77808679  0.82399346  0.03594784    -0.21500
C1137       C  0.77761874  0.81090945  0.00064212    -0.09500
C1138       C  0.78281706  0.78160673  0.99737331     0.29400
F1139       F  0.78047991  0.76631265  0.96441336    -0.20000
H1140       H  0.80506823  0.75283116  0.02249129     0.17700
H1141       H  0.77325197  0.84583549  0.03970882     0.17700
F1142       F  0.79589441  0.83043330  0.09814528    -0.20000
C1143       C  0.44130797  0.77292202  0.90406269    -0.21500
C1144       C  0.47806521  0.78502611  0.90379471    -0.09500
C1145       C  0.49990839  0.81063825  0.92956843     0.29400
C1146       C  0.48604904  0.82571841  0.95304934    -0.21500
C1147       C  0.44985977  0.81572917  0.95195897    -0.09500
C1148       C  0.42716694  0.78797029  0.92818921     0.29400
F1149       F  0.39197154  0.77687433  0.92673660    -0.20000
H1150       H  0.42402535  0.75364408  0.88400596     0.17700
H1151       H  0.50421204  0.84607819  0.97177853     0.17700
F1152       F  0.53534613  0.82255912  0.93074120    -0.20000
C1153       C  0.40241403  0.62523966  0.80415093    -0.21500
C1154       C  0.41165152  0.64923842  0.77467272    -0.09500
C1155       C  0.39388415  0.63634839  0.74115334     0.29400
C1156       C  0.36747751  0.60061786  0.73754840    -0.21500
C1157       C  0.35787204  0.57663390  0.76709256    -0.09500
C1158       C  0.37586201  0.58938382  0.80051916     0.29400
F1159       F  0.36744633  0.56758652  0.82998317    -0.20000
H1160       H  0.41587919  0.63416619  0.83015292     0.17700
H1161       H  0.35428686  0.59184314  0.71138296     0.17700
F1162       F  0.40245747  0.65789476  0.71139665    -0.20000
C1163       C  0.65148600  0.85357560  0.82211170    -0.21500
C1164       C  0.62440757  0.82028373  0.83496602    -0.09500
C1165       C  0.63415902  0.79987574  0.85688586     0.29400
C1166       C  0.66988874  0.81242550  0.86526954    -0.21500
C1167       C  0.69699845  0.84553976  0.85216683    -0.09500
C1168       C  0.68726914  0.86613108  0.83048894     0.29400
F1169       F  0.71217890  0.89844373  0.81711149    -0.20000
H1170       H  0.64505695  0.86996421  0.80525518     0.17700
H1171       H  0.67626582  0.79599846  0.88212419     0.17700
F1172       F  0.60930627  0.76761906  0.87040393    -0.20000
C1173       C  0.36852039  0.78773709  0.80928022    -0.21500
C1174       C  0.34417733  0.76824936  0.78128131    -0.09500
C1175       C  0.35641505  0.75760567  0.75094116     0.29400
C1176       C  0.39190405  0.76668892  0.74853664    -0.21500
C1177       C  0.41637378  0.78620445  0.77635268    -0.09500
C1178       C  0.40420833  0.79656807  0.80699676     0.29400
F1179       F  0.42655889  0.81508765  0.83480377    -0.20000
H1180       H  0.36009221  0.79660751  0.83283439     0.17700
H1181       H  0.39998024  0.75773139  0.72477109     0.17700
F1182       F  0.33427468  0.73845639  0.72322041    -0.20000
C1183       C  0.87650549  0.88680147  0.77951001    -0.21500
C1184       C  0.84045563  0.87735824  0.78049537    -0.09500
C1185       C  0.81762438  0.85525705  0.75299193     0.29400
C1186       C  0.82992232  0.84128986  0.72633894    -0.21500
C1187       C  0.86531416  0.84859270  0.72634655    -0.09500
C1188       C  0.88897578  0.87258506  0.75257577     0.29400
F1189       F  0.92339203  0.88070459  0.75349987    -0.20000
H1190       H  0.89443015  0.90335457  0.80088927     0.17700
H1191       H  0.81117395  0.82388774  0.70593975     0.17700
F1192       F  0.78282493  0.84597052  0.75276629    -0.20000
C1193       C  0.84646387  0.65711981  0.69495747    -0.21500
C1194       C  0.81370878  0.63003037  0.68138803    -0.09500
C1195       C  0.79370669  0.63974835  0.65879355     0.29400
C1196       C  0.80655325  0.67542305  0.64974459    -0.21500
C1197       C  0.83948974  0.70247155  0.66291793    -0.09500
C1198       C  0.85925110  0.69286779  0.68600949     0.29400
F1199       F  0.89106714  0.71784570  0.70004757    -0.20000
H1200       H  0.86235588  0.65070596  0.71255278     0.17700
H1201       H  0.79058407  0.68178446  0.63220677     0.17700
F1202       F  0.76164976  0.61492631  0.64508722    -0.20000
C1203       C  0.87507945  0.53961673  0.82185813    -0.21500
C1204       C  0.84570196  0.54405895  0.82819618    -0.09500
C1205       C  0.83346047  0.54132008  0.86439103     0.29400
C1206       C  0.84594420  0.52807611  0.89184586    -0.21500
C1207       C  0.87008806  0.51673844  0.88343712    -0.09500
C1208       C  0.88691833  0.52558566  0.84910253     0.29400
F1209       F  0.91140566  0.51632235  0.84046310    -0.20000
H1210       H  0.88597369  0.54253762  0.79447628     0.17700
H1211       H  0.83272110  0.52185923  0.91831486     0.17700
F1212       F  0.80632793  0.54696366  0.87236672    -0.20000
C1213       C  0.62273985  0.50981940  0.80766463    -0.21500
C1214       C  0.63513261  0.52220299  0.84321119    -0.09500
C1215       C  0.67005354  0.55144914  0.84715387     0.29400
C1216       C  0.69385665  0.56226794  0.81768998    -0.21500
C1217       C  0.68304115  0.54459786  0.78398574    -0.09500
C1218       C  0.64647584  0.52132515  0.77803216     0.29400
F1219       F  0.63486869  0.50448210  0.74543561    -0.20000
H1220       H  0.59573970  0.48810109  0.80344977     0.17700
H1221       H  0.72186216  0.58066749  0.82275872     0.17700
F1222       F  0.68290199  0.56596458  0.88046433    -0.20000
C1223       C  0.00595193  0.14014844  0.71340742    -0.21500
C1224       C  0.96869779  0.12148682  0.71876024    -0.09500
C1225       C  0.95529775  0.11109470  0.75430967     0.29400
C1226       C  0.97880092  0.12165700  0.78395714    -0.21500
C1227       C  0.01601634  0.14230053  0.77870186    -0.09500
C1228       C  0.02942676  0.15029855  0.74296364     0.29400
F1229       F  0.06499310  0.17033220  0.73670705    -0.20000
H1230       H  0.01700877  0.14815310  0.68621671     0.17700
H1231       H  0.96781478  0.11495073  0.81136645     0.17700
F1232       F  0.91969232  0.09311545  0.76068212    -0.20000
C1233       C  0.86782801  0.92468395  0.57099742    -0.21500
C1234       C  0.86348697  0.90590696  0.60358215    -0.09500
C1235       C  0.86545333  0.92253439  0.63717945     0.29400
C1236       C  0.87272741  0.95775456  0.63788529    -0.21500
C1237       C  0.87817075  0.97687929  0.60517364    -0.09500
C1238       C  0.87514934  0.95964274  0.57159588     0.29400
F1239       F  0.88005613  0.97660525  0.53904217    -0.20000
H1240       H  0.86653695  0.91257345  0.54478585     0.17700
H1241       H  0.87462944  0.97018741  0.66402350     0.17700
F1242       F  0.86232988  0.90558776  0.66932353    -0.20000
C1243       C  0.78854614  0.37645641  0.70991772    -0.21500
C1244       C  0.76195959  0.34920026  0.73179076    -0.09500
C1245       C  0.74272551  0.35799878  0.75624664     0.29400
C1246       C  0.75056514  0.39317147  0.75928461    -0.21500
C1247       C  0.77751370  0.42059354  0.73790786    -0.09500
C1248       C  0.79622608  0.41174616  0.71278962     0.29400
F1249       F  0.82228249  0.43712324  0.69141515    -0.20000
H1250       H  0.80407896  0.37065488  0.69107324     0.17700
H1251       H  0.73494720  0.39876181  0.77824141     0.17700
F1252       F  0.71619587  0.33269295  0.77728631    -0.20000
C1253       C  0.83422030  0.19856252  0.65819058    -0.21500
C1254       C  0.80511515  0.17822027  0.68186127    -0.09500
C1255       C  0.79994108  0.14554506  0.69497186     0.29400
C1256       C  0.82298026  0.13363394  0.68436574    -0.21500
C1257       C  0.85185246  0.15379782  0.66047095    -0.09500
C1258       C  0.85729251  0.18660431  0.64759500     0.29400
F1259       F  0.88410978  0.20663132  0.62382244    -0.20000
H1260       H  0.83906798  0.22379928  0.64739724     0.17700
H1261       H  0.81801598  0.10826886  0.69491687     0.17700
F1262       F  0.77254191  0.12481484  0.71786878    -0.20000
C1263       C  0.65117076  0.11714858  0.82371139    -0.21500
C1264       C  0.68539028  0.14643577  0.83069333    -0.09500
C1265       C  0.69436683  0.15798501  0.86712681     0.29400
C1266       C  0.66787976  0.14488636  0.89423304    -0.21500
C1267       C  0.63215385  0.12075719  0.88516238    -0.09500
C1268       C  0.62465620  0.10458832  0.85058007     0.29400
F1269       F  0.59067327  0.08025983  0.84118886    -0.20000
H1270       H  0.64346802  0.10683633  0.79623667     0.17700
H1271       H  0.67454579  0.15748737  0.92085909     0.17700
F1272       F  0.72754406  0.18478015  0.87575064    -0.20000
C1273       C  0.87790113  0.37070977  0.80709993    -0.21500
C1274       C  0.87727089  0.35956535  0.84332186    -0.09500
C1275       C  0.87050069  0.32474103  0.84941919     0.29400
C1276       C  0.85695781  0.29975311  0.82103032    -0.21500
C1277       C  0.85103491  0.30953734  0.78627840    -0.09500
C1278       C  0.86546831  0.34594439  0.77851955     0.29400
F1279       F  0.86071121  0.35645387  0.74508393    -0.20000
H1280       H  0.88336822  0.39747509  0.80163408     0.17700
H1281       H  0.84614414  0.27185584  0.82760310     0.17700
F1282       F  0.87042638  0.31307850  0.88388428    -0.20000
C1283       C  0.15361717  0.99729775  0.77728877    -0.21500
C1284       C  0.11708107  0.97152505  0.77910278    -0.09500
C1285       C  0.09358926  0.97674439  0.75696206     0.29400
C1286       C  0.10705541  0.00578808  0.73206655    -0.21500
C1287       C  0.14399979  0.03014818  0.72920613    -0.09500
C1288       C  0.16682704  0.02590012  0.75297185     0.29400
F1289       F  0.20255135  0.04880184  0.75162295    -0.20000
H1290       H  0.17261737  0.99513650  0.79448033     0.17700
H1291       H  0.08887635  0.00801492  0.71363008     0.17700
F1292       F  0.05805594  0.95317754  0.75815105    -0.20000
C1293       C  0.03321763  0.92396253  0.63733179    -0.21500
C1294       C  0.00789903  0.91989980  0.61104154    -0.09500
C1295       C  0.01913976  0.94315055  0.58077092     0.29400
C1296       C  0.05490183  0.96905684  0.57657960    -0.21500
C1297       C  0.08035000  0.97265880  0.60242506    -0.09500
C1298       C  0.06903327  0.95002520  0.63319845     0.29400
F1299       F  0.09240088  0.95274609  0.65927420    -0.20000
H1300       H  0.02551376  0.90642443  0.66079126     0.17700
H1301       H  0.06252082  0.98649625  0.55305997     0.17700
F1302       F  0.99593550  0.94042718  0.55449925    -0.20000
C1303       C  0.04979443  0.08014497  0.57333835    -0.21500
C1304       C  0.07525107  0.10003313  0.60021999    -0.09500
C1305       C  0.07231977  0.12666638  0.61900739     0.29400
C1306       C  0.04440894  0.13277842  0.61112686    -0.21500
C1307       C  0.01862312  0.11232705  0.58474142    -0.09500
C1308       C  0.02193579  0.08610544  0.56561858     0.29400
F1309       F  0.99826067  0.06603292  0.53931820    -0.20000
H1310       H  0.05149210  0.05988659  0.55787421     0.17700
H1311       H  0.04258155  0.15306857  0.62629779     0.17700
F1312       F  0.09666514  0.14730851  0.64450963    -0.20000
C1313       C  0.58305409  0.37907680  0.70833193    -0.21500
C1314       C  0.57192601  0.35820297  0.74028498    -0.09500
C1315       C  0.59689214  0.36596026  0.76843270     0.29400
C1316       C  0.63190406  0.39379780  0.76444240    -0.21500
C1317       C  0.64306715  0.41473953  0.73254248    -0.09500
C1318       C  0.61815965  0.40699573  0.70436184     0.29400
F1319       F  0.62741704  0.42646831  0.67303759    -0.20000
H1320       H  0.56466420  0.37352793  0.68598371     0.17700
H1321       H  0.65021504  0.39921563  0.78683367     0.17700
F1322       F  0.58777299  0.34672744  0.79993680    -0.20000
C1323       C  0.57752068  0.20312528  0.70633508    -0.21500
C1324       C  0.57326734  0.22454867  0.73230998    -0.09500
C1325       C  0.59749986  0.23850967  0.76152825     0.29400
C1326       C  0.62477766  0.23096210  0.76475321    -0.21500
C1327       C  0.62927091  0.20968093  0.73887337    -0.09500
C1328       C  0.60523902  0.19579482  0.70943655     0.29400
F1329       F  0.60842726  0.17529082  0.68359314    -0.20000
H1330       H  0.55913171  0.19164305  0.68375186     0.17700
H1331       H  0.64288724  0.24257847  0.78753990     0.17700
F1332       F  0.59513912  0.25965452  0.78722844    -0.20000
C1333       C  0.34957162  0.15395603  0.66544240    -0.21500
C1334       C  0.36143773  0.18798198  0.68016546    -0.09500
C1335       C  0.33639806  0.19883921  0.68574029     0.29400
C1336       C  0.30065014  0.17635679  0.67623547    -0.21500
C1337       C  0.28890028  0.14253662  0.66103041    -0.09500
C1338       C  0.31384913  0.13143674  0.65608681     0.29400
F1339       F  0.30384048  0.09863683  0.64268297    -0.20000
H1340       H  0.36796063  0.14451760  0.66130910     0.17700
H1341       H  0.28220672  0.18571465  0.68042846     0.17700
F1342       F  0.34639777  0.23141796  0.69972591    -0.20000
C1343       C  0.45602031  0.33789126  0.82105758    -0.21500
C1344       C  0.44854725  0.30293117  0.82813767    -0.09500
C1345       C  0.44818678  0.29275790  0.86479893     0.29400
C1346       C  0.46124327  0.31863054  0.89249432    -0.21500
C1347       C  0.47540149  0.35482703  0.88373387    -0.09500
C1348       C  0.46987038  0.36375244  0.84845072     0.29400
F1349       F  0.48326004  0.39843008  0.83902921    -0.20000
H1350       H  0.45587691  0.34659863  0.79343089     0.17700
H1351       H  0.46523293  0.31111898  0.91945738     0.17700
F1352       F  0.43926710  0.25888918  0.87333878    -0.20000
C1353       C  0.46628062  0.12373579  0.77271158    -0.21500
C1354       C  0.44267053  0.13571648  0.78098223    -0.09500
C1355       C  0.42576024  0.12718299  0.81528709     0.29400
C1356       C  0.43784563  0.11378539  0.84301612    -0.21500
C1357       C  0.46762987  0.11006550  0.83691513    -0.09500
C1358       C  0.47946536  0.11177633  0.80073147     0.29400
F1359       F  0.50764318  0.10755541  0.79354650    -0.20000
H1360       H  0.47958021  0.12992378  0.74638589     0.17700
H1361       H  0.42790176  0.11225336  0.87051345     0.17700
F1362       F  0.40229316  0.13780647  0.82382695    -0.20000
C1363       C  0.83515549  0.50088320  0.56625862    -0.21500
C1364       C  0.81884867  0.46428498  0.55856279    -0.09500
C1365       C  0.78526231  0.44112105  0.57448273     0.29400
C1366       C  0.77003998  0.45432286  0.59956374    -0.21500
C1367       C  0.78781582  0.49080575  0.60855518    -0.09500
C1368       C  0.81992320  0.51398000  0.59037896     0.29400
F1369       F  0.83751564  0.54960789  0.59685795    -0.20000
H1370       H  0.86035224  0.51989458  0.55378912     0.17700
H1371       H  0.74527416  0.43585778  0.61312955     0.17700
F1372       F  0.76740240  0.40590939  0.56623302    -0.20000
C1373       C  0.87159349  0.50634673  0.31063948    -0.21500
C1374       C  0.87316109  0.51904858  0.34634755    -0.09500
C1375       C  0.86712968  0.54772921  0.35114345     0.29400
C1376       C  0.85370704  0.55859684  0.32231739    -0.21500
C1377       C  0.84657463  0.54157268  0.28826349    -0.09500
C1378       C  0.85876987  0.51779745  0.28169547     0.29400
F1379       F  0.85224689  0.50079921  0.24908282    -0.20000
H1380       H  0.87655062  0.48472559  0.30578555     0.17700
H1381       H  0.84435351  0.57685713  0.32805208     0.17700
F1382       F  0.86937635  0.56200353  0.38468726    -0.20000
C1383       C  0.89055455  0.36415385  0.35674237    -0.21500
C1384       C  0.87541271  0.35577665  0.39189318    -0.09500
C1385       C  0.85229666  0.31972593  0.40092655     0.29400
C1386       C  0.83878433  0.29396577  0.37329243    -0.21500
C1387       C  0.84907691  0.30370124  0.33670187    -0.09500
C1388       C  0.87769756  0.33824980  0.32924918     0.29400
F1389       F  0.88861111  0.34881339  0.29432329    -0.20000
H1390       H  0.90835435  0.39174419  0.34916300     0.17700
H1391       H  0.81695099  0.26752030  0.37977036     0.17700
F1392       F  0.83724842  0.31054356  0.43468575    -0.20000
C1393       C  0.02822351  0.53468641  0.48498139    -0.21500
C1394       C  0.03765007  0.51359602  0.50598402    -0.09500
C1395       C  0.01027767  0.47998440  0.51807559     0.29400
C1396       C  0.97469101  0.46835008  0.50999993    -0.21500
C1397       C  0.96511467  0.48958701  0.48951129    -0.09500
C1398       C  0.99252190  0.52291186  0.47670676     0.29400
F1399       F  0.98503868  0.54435624  0.45638126    -0.20000
H1400       H  0.04853375  0.56058940  0.47500744     0.17700
H1401       H  0.95451024  0.44243253  0.52006613     0.17700
F1402       F  0.01761332  0.45822986  0.53805459    -0.20000
C1403       C  0.11216616  0.48253004  0.68749351    -0.21500
C1404       C  0.11612906  0.47337240  0.65159836    -0.09500
C1405       C  0.12479106  0.44651571  0.64699006     0.29400
C1406       C  0.13590467  0.43468078  0.67699370    -0.21500
C1407       C  0.13875351  0.44946875  0.71180514    -0.09500
C1408       C  0.12296626  0.47027066  0.71753439     0.29400
F1409       F  0.12424081  0.48420861  0.75104411    -0.20000
H1410       H  0.10469497  0.50241541  0.69209154     0.17700
H1411       H  0.14767905  0.41837485  0.67194988     0.17700
F1412       F  0.12805548  0.43577435  0.61312259    -0.20000
C1413       C  0.14535474  0.67617184  0.61348904    -0.21500
C1414       C  0.12303711  0.63953789  0.62016448    -0.09500
C1415       C  0.10683122  0.62843191  0.65461609     0.29400
C1416       C  0.11694248  0.65290847  0.68322639    -0.21500
C1417       C  0.14430686  0.68860626  0.67824245    -0.09500
C1418       C  0.15640986  0.70059952  0.64238970     0.29400
F1419       F  0.18206920  0.73492638  0.63592821    -0.20000
H1420       H  0.15848262  0.68525210  0.58723083     0.17700
H1421       H  0.10663260  0.64273925  0.71029557     0.17700
F1422       F  0.08544356  0.59317708  0.66200657    -0.20000
C1423       C  0.54500982  0.32710163  0.61235846    -0.21500
C1424       C  0.50864333  0.30069582  0.61124056    -0.09500
C1425       C  0.48702880  0.30333606  0.58461482     0.29400
C1426       C  0.50084693  0.33247709  0.56092694    -0.21500
C1427       C  0.53665958  0.36014155  0.56302283    -0.09500
C1428       C  0.55904985  0.35662666  0.58832662     0.29400
F1429       F  0.59376446  0.38248444  0.59126916    -0.20000
H1430       H  0.56197857  0.32605249  0.63332159     0.17700
H1431       H  0.48296051  0.33365990  0.54120095     0.17700
F1432       F  0.45187060  0.27837138  0.58267025    -0.20000
C1433       C  0.70798948  0.45510946  0.47715593    -0.21500
C1434       C  0.68205228  0.43412837  0.45096524    -0.09500
C1435       C  0.69238078  0.42118563  0.42098264     0.29400
C1436       C  0.72764260  0.42980971  0.41693848    -0.21500
C1437       C  0.75378434  0.45125379  0.44265272    -0.09500
C1438       C  0.74341969  0.46348310  0.47324875     0.29400
F1439       F  0.76731177  0.48354848  0.49936927    -0.20000
H1440       H  0.70103747  0.46565071  0.50047234     0.17700
H1441       H  0.73431278  0.41928890  0.39340007     0.17700
F1442       F  0.66871417  0.40074164  0.39485897    -0.20000
C1443       C  0.68116677  0.53821479  0.39817115    -0.21500
C1444       C  0.64448749  0.52413129  0.39341915    -0.09500
C1445       C  0.63243463  0.52932308  0.35965610     0.29400
C1446       C  0.65543605  0.54187565  0.32949458    -0.21500
C1447       C  0.69060781  0.54897242  0.33259181    -0.09500
C1448       C  0.70420682  0.55044763  0.36793909     0.29400
F1449       F  0.73855124  0.55912692  0.37266323    -0.20000
H1450       H  0.69112954  0.53456888  0.42403557     0.17700
H1451       H  0.64423378  0.54126414  0.30286232     0.17700
F1452       F  0.59718865  0.51660438  0.35441836    -0.20000
C1453       C  0.45189797  0.32738881  0.36095896    -0.21500
C1454       C  0.48097277  0.36182963  0.35412132    -0.09500
C1455       C  0.49269107  0.37137689  0.31773752     0.29400
C1456       C  0.47938150  0.34544359  0.29025220    -0.21500
C1457       C  0.45490157  0.30958304  0.29875475    -0.09500
C1458       C  0.43926030  0.30132361  0.33371083     0.29400
F1459       F  0.41488579  0.26716744  0.34275526    -0.20000
H1460       H  0.44169972  0.31921700  0.38851924     0.17700
H1461       H  0.49185423  0.35264241  0.26346906     0.17700
F1462       F  0.51973355  0.40462013  0.30942227    -0.20000
C1463       C  0.48932556  0.48505680  0.47572709    -0.21500
C1464       C  0.51747376  0.48673717  0.49594965    -0.09500
C1465       C  0.53423265  0.51374148  0.52257248     0.29400
C1466       C  0.52244665  0.53774313  0.52912101    -0.21500
C1467       C  0.49361893  0.53526724  0.50962797    -0.09500
C1468       C  0.47753978  0.50895829  0.48232953     0.29400
F1469       F  0.45033269  0.50625111  0.46185730    -0.20000
H1470       H  0.47624325  0.46510573  0.45468628     0.17700
H1471       H  0.53509488  0.55748822  0.55042858     0.17700
F1472       F  0.56136127  0.51647935  0.54316120    -0.20000
C1473       C  0.29951809  0.56077728  0.59306415    -0.21500
C1474       C  0.31325567  0.55715113  0.55963980    -0.09500
C1475       C  0.29035262  0.54311200  0.52941649     0.29400
C1476       C  0.25480987  0.53450601  0.53248460    -0.21500
C1477       C  0.24159878  0.53949588  0.56574412    -0.09500
C1478       C  0.26429785  0.55192927  0.59629014     0.29400
F1479       F  0.25299665  0.55654875  0.62934344    -0.20000
H1480       H  0.31619042  0.57089038  0.61707881     0.17700
H1481       H  0.23793600  0.52485398  0.50854640     0.17700
F1482       F  0.30207440  0.53744526  0.49716363    -0.20000
C1483       C  0.54609758  0.67666428  0.66187734    -0.21500
C1484       C  0.51755076  0.64167759  0.66691800    -0.09500
C1485       C  0.50452531  0.63030987  0.70263154     0.29400
C1486       C  0.51573857  0.65499718  0.73125949    -0.21500
C1487       C  0.53914342  0.69140175  0.72438316    -0.09500
C1488       C  0.55643971  0.70158581  0.69024867     0.29400
F1489       F  0.57928068  0.73653080  0.68274067    -0.20000
H1490       H  0.55660043  0.68618546  0.63469688     0.17700
H1491       H  0.50174133  0.64650818  0.75716952     0.17700
F1492       F  0.47722687  0.59660626  0.70869150    -0.20000
C1493       C  0.36311204  0.47333364  0.65006551    -0.21500
C1494       C  0.35553906  0.48326719  0.61627018    -0.09500
C1495       C  0.32008876  0.47362731  0.60872984     0.29400
C1496       C  0.29464857  0.46070453  0.63676807    -0.21500
C1497       C  0.30393430  0.45646647  0.67244033    -0.09500
C1498       C  0.33742822  0.45952922  0.67785905     0.29400
F1499       F  0.34709483  0.45363018  0.71121088    -0.20000
H1500       H  0.39010020  0.48006956  0.65637486     0.17700
H1501       H  0.26888774  0.45782396  0.63138717     0.17700
F1502       F  0.31136814  0.48216299  0.57619789    -0.20000
C1503       C  0.45126782  0.74955536  0.54960965    -0.21500
C1504       C  0.43549735  0.75721490  0.57895992    -0.09500
C1505       C  0.42581978  0.73566830  0.61059187     0.29400
C1506       C  0.43190989  0.70727126  0.61262150    -0.21500
C1507       C  0.44806781  0.69986500  0.58351695    -0.09500
C1508       C  0.45765599  0.72121438  0.55185121     0.29400
F1509       F  0.47167666  0.71371844  0.52248893    -0.20000
H1510       H  0.45896839  0.76575051  0.52496388     0.17700
H1511       H  0.42369002  0.69077211  0.63702849     0.17700
F1512       F  0.40973139  0.74148714  0.63936870    -0.20000
C1513       C  0.27801346  0.74594002  0.56539058    -0.21500
C1514       C  0.30212495  0.75208555  0.59374903    -0.09500
C1515       C  0.29959163  0.72252293  0.61240878     0.29400
C1516       C  0.27376861  0.68790436  0.60261675    -0.21500
C1517       C  0.24983229  0.68167898  0.57399324    -0.09500
C1518       C  0.25237707  0.71126017  0.55531996     0.29400
F1519       F  0.22992501  0.70695061  0.52755758    -0.20000
H1520       H  0.27955338  0.76800718  0.55023808     0.17700
H1521       H  0.27230927  0.66591563  0.61791794     0.17700
F1522       F  0.32213559  0.72685533  0.64010384    -0.20000
C1523       C  0.52380580  0.89872123  0.66853893    -0.21500
C1524       C  0.51714516  0.88307746  0.63376065    -0.09500
C1525       C  0.53113157  0.86104408  0.62534688     0.29400
C1526       C  0.54359440  0.84839761  0.65346373    -0.21500
C1527       C  0.54324628  0.85847561  0.68988106    -0.09500
C1528       C  0.53715505  0.88686628  0.69643800     0.29400
F1529       F  0.53877672  0.89944479  0.73074881    -0.20000
H1530       H  0.51425790  0.91658461  0.67545337     0.17700
H1531       H  0.54940269  0.82757538  0.64728726     0.17700
F1532       F  0.52713776  0.84684656  0.59146542    -0.20000
C1533       C  0.36656866  0.88312328  0.71356626    -0.21500
C1534       C  0.35769211  0.88569542  0.67719894    -0.09500
C1535       C  0.32379463  0.88094991  0.67019223     0.29400
C1536       C  0.29711049  0.86553067  0.69700757    -0.21500
C1537       C  0.30449963  0.85638497  0.73139416    -0.09500
C1538       C  0.34025204  0.86919924  0.74076782     0.29400
F1539       F  0.34852369  0.86142947  0.77397715    -0.20000
H1540       H  0.39264291  0.88720991  0.71989573     0.17700
H1541       H  0.26980174  0.85620532  0.68924550     0.17700
F1542       F  0.31456970  0.88490377  0.63582796    -0.20000
C1543       C  0.62722417  0.15795378  0.59469664    -0.21500
C1544       C  0.62705174  0.18206717  0.56961462    -0.09500
C1545       C  0.65455635  0.21802918  0.57107641     0.29400
C1546       C  0.68220203  0.22927087  0.59681106    -0.21500
C1547       C  0.68343402  0.20453184  0.62058806    -0.09500
C1548       C  0.65494296  0.16877659  0.61972425     0.29400
F1549       F  0.65416649  0.14364965  0.64234023    -0.20000
H1550       H  0.60707151  0.12994727  0.59314788     0.17700
H1551       H  0.70348698  0.25686116  0.59689066     0.17700
F1552       F  0.65605707  0.24164722  0.54586396    -0.20000
C1553       C  0.68852911  0.27950337  0.41964544    -0.21500
C1554       C  0.68719211  0.24921361  0.43503664    -0.09500
C1555       C  0.71647362  0.25392658  0.45587646     0.29400
C1556       C  0.74614275  0.28817276  0.46096133    -0.21500
C1557       C  0.74725051  0.31819998  0.44519438    -0.09500
C1558       C  0.71799062  0.31342401  0.42461882     0.29400
F1559       F  0.71765311  0.34168324  0.40938002    -0.20000
H1560       H  0.66654720  0.27715599  0.40380082     0.17700
H1561       H  0.76857302  0.29109303  0.47639020     0.17700
F1562       F  0.71652658  0.22568185  0.47149523    -0.20000
C1563       C  0.53518173  0.25239378  0.41804851    -0.21500
C1564       C  0.54421840  0.24276070  0.45133875    -0.09500
C1565       C  0.54591750  0.26157615  0.48327707     0.29400
C1566       C  0.54015732  0.29033647  0.48137658    -0.21500
C1567       C  0.53308708  0.30091983  0.44766774    -0.09500
C1568       C  0.52990598  0.28126467  0.41612512     0.29400
F1569       F  0.52241950  0.29044608  0.38324111    -0.20000
H1570       H  0.53283445  0.23799818  0.39313460     0.17700
H1571       H  0.54319020  0.30554919  0.50585656     0.17700
F1572       F  0.55466971  0.25334036  0.51594886    -0.20000
C1573       C  0.49546067  0.97392650  0.49672990    -0.21500
C1574       C  0.46770216  0.96413269  0.52225339    -0.09500
C1575       C  0.46402555  0.99118800  0.53875133     0.29400
C1576       C  0.48722677  0.02696739  0.52941632    -0.21500
C1577       C  0.51482210  0.03672497  0.50371073    -0.09500
C1578       C  0.51875842  0.00971250  0.48752167     0.29400
F1579       F  0.54435170  0.01768857  0.46196149    -0.20000
H1580       H  0.49904937  0.95371415  0.48358519     0.17700
H1581       H  0.48373902  0.04721336  0.54263608     0.17700
F1582       F  0.43883409  0.98326622  0.56477015    -0.20000
C1583       C  0.68950654  0.13768529  0.33230472    -0.21500
C1584       C  0.68197957  0.14437746  0.29679555    -0.09500
C1585       C  0.64622405  0.13223662  0.28757143     0.29400
C1586       C  0.62030048  0.12064499  0.31504340    -0.21500
C1587       C  0.62933564  0.11971117  0.35165728    -0.09500
C1588       C  0.66328933  0.12510977  0.35958519     0.29400
F1589       F  0.67298162  0.12434274  0.39468659    -0.20000
H1590       H  0.71672402  0.14655772  0.34009657     0.17700
H1591       H  0.59424264  0.11643690  0.30831252     0.17700
F1592       F  0.63741685  0.13740810  0.25346777    -0.20000
C1593       C  0.45287423  0.13928629  0.39747027    -0.21500
C1594       C  0.46892249  0.11922647  0.38891933    -0.09500
C1595       C  0.46323522  0.10387681  0.35389327     0.29400
C1596       C  0.44791395  0.11409307  0.32634725    -0.21500
C1597       C  0.43898299  0.14028240  0.33324122    -0.09500
C1598       C  0.43828879  0.15010496  0.36972813     0.29400
F1599       F  0.42879487  0.17459342  0.37749991    -0.20000
H1600       H  0.45650036  0.15124411  0.42433009     0.17700
H1601       H  0.44855194  0.10592864  0.29843931     0.17700
F1602       F  0.47721250  0.08328258  0.34491286    -0.20000
C1603       C  0.12433745  0.14189808  0.21418568    -0.21500
C1604       C  0.14297964  0.12353079  0.21948053    -0.09500
C1605       C  0.14724630  0.11471226  0.25519789     0.29400
C1606       C  0.13562070  0.12652490  0.28490067    -0.21500
C1607       C  0.11929676  0.14713605  0.27965938    -0.09500
C1608       C  0.11248206  0.15348081  0.24386503     0.29400
F1609       F  0.09690894  0.17313208  0.23744853    -0.20000
H1610       H  0.12022375  0.14859706  0.18696672     0.17700
H1611       H  0.14077581  0.12081504  0.31222759     0.17700
F1612       F  0.16496141  0.09713940  0.26159746    -0.20000
C1613       C  0.98205348  0.18777197  0.44007952    -0.21500
C1614       C  0.01745253  0.21157698  0.45044890    -0.09500
C1615       C  0.02386202  0.22641550  0.48574035     0.29400
C1616       C  0.99629321  0.21335896  0.51159962    -0.21500
C1617       C  0.96241273  0.18458189  0.50297846    -0.09500
C1618       C  0.95478933  0.17379650  0.46625723     0.29400
F1619       F  0.92226410  0.14626141  0.45682695    -0.20000
H1620       H  0.97623150  0.17576083  0.41307747     0.17700
H1621       H  0.00292635  0.22211129  0.53975629     0.17700
F1622       F  0.05758771  0.24983781  0.49667779    -0.20000
C1623       C  0.22009361  0.19883112  0.52034455    -0.21500
C1624       C  0.20361532  0.19117059  0.55486260    -0.09500
C1625       C  0.17988297  0.20319123  0.56263428     0.29400
C1626       C  0.16689610  0.21492473  0.53417192    -0.21500
C1627       C  0.17870829  0.21633049  0.49813557    -0.09500
C1628       C  0.20815577  0.21194502  0.49216367     0.29400
F1629       F  0.22100115  0.21395628  0.45785374    -0.20000
H1630       H  0.23845066  0.18981755  0.51372867     0.17700
H1631       H  0.14452902  0.21858980  0.53952768     0.17700
F1632       F  0.16384239  0.19674830  0.59587541    -0.20000
C1633       C  0.17827057  0.51667722  0.38484867    -0.21500
C1634       C  0.21327846  0.52319090  0.38782170    -0.09500
C1635       C  0.23579820  0.54772115  0.41431284     0.29400
C1636       C  0.22211252  0.56240180  0.43941804    -0.21500
C1637       C  0.18612661  0.55322006  0.43789119    -0.09500
C1638       C  0.16493428  0.53151487  0.40928177     0.29400
F1639       F  0.13033579  0.52262167  0.40650448    -0.20000
H1640       H  0.16038811  0.49872923  0.36417894     0.17700
H1641       H  0.23882418  0.57870780  0.46167237     0.17700
F1642       F  0.26992087  0.55534722  0.41773064    -0.20000
C1643       C  0.13874072  0.30842325  0.31902239    -0.21500
C1644       C  0.15753717  0.29795934  0.34219495    -0.09500
C1645       C  0.19040532  0.32455929  0.35639785     0.29400
C1646       C  0.20336711  0.36070379  0.34825606    -0.21500
C1647       C  0.18392242  0.37110445  0.32577744    -0.09500
C1648       C  0.15156949  0.34422572  0.31084698     0.29400
F1649       F  0.13188021  0.35226107  0.28838463    -0.20000
H1650       H  0.11354985  0.28872078  0.30727581     0.17700
H1651       H  0.22842040  0.38058728  0.36006183     0.17700
F1652       F  0.20937778  0.31588872  0.37918214    -0.20000
C1653       C  0.36975163  0.49655817  0.19123605    -0.21500
C1654       C  0.35703447  0.48448269  0.15573112    -0.09500
C1655       C  0.32185266  0.45554013  0.15187167     0.29400
C1656       C  0.29846124  0.44407920  0.18170430    -0.21500
C1657       C  0.30980644  0.46063350  0.21582320    -0.09500
C1658       C  0.34640640  0.48435573  0.22122440     0.29400
F1659       F  0.35841695  0.50053479  0.25404932    -0.20000
H1660       H  0.39678942  0.51825523  0.19531038     0.17700
H1661       H  0.27038892  0.42573500  0.17693418     0.17700
F1662       F  0.30834790  0.44179997  0.11848346    -0.20000
C1663       C  0.13555964  0.46030214  0.12169558    -0.21500
C1664       C  0.11283489  0.47334706  0.13012115    -0.09500
C1665       C  0.09877367  0.46818103  0.16571919     0.29400
C1666       C  0.11274804  0.45699435  0.19360172    -0.21500
C1667       C  0.14113002  0.45123753  0.18640763    -0.09500
C1668       C  0.15005826  0.44970349  0.14968507     0.29400
F1669       F  0.17597740  0.44240890  0.14117752    -0.20000
H1670       H  0.14648392  0.46349072  0.09429983     0.17700
H1671       H  0.10447708  0.45745538  0.22151364     0.17700
F1672       F  0.07567604  0.47920097  0.17460915    -0.20000
C1673       C  0.99816834  0.84177037  0.22479470    -0.21500
C1674       C  0.96862790  0.84646540  0.22837081    -0.09500
C1675       C  0.96875437  0.86809421  0.25703475     0.29400
C1676       C  0.99714644  0.88312796  0.28228644    -0.21500
C1677       C  0.02565515  0.87674063  0.27935148    -0.09500
C1678       C  0.02608806  0.85643164  0.24991983     0.29400
F1679       F  0.05309607  0.84971630  0.24617315    -0.20000
H1680       H  0.99942916  0.82594854  0.20268121     0.17700
H1681       H  0.99581679  0.89794895  0.30536146     0.17700
F1682       F  0.94066982  0.87292928  0.26196678    -0.20000
C1683       C  0.12098539  0.04335551  0.38869013    -0.21500
C1684       C  0.09065881  0.01353709  0.40352688    -0.09500
C1685       C  0.06691918  0.01914174  0.42461036     0.29400
C1686       C  0.07341042  0.05363852  0.43042099    -0.21500
C1687       C  0.10380402  0.08357026  0.41566932    -0.09500
C1688       C  0.12773661  0.07796205  0.39489280     0.29400
F1689       F  0.15755367  0.10574853  0.38018988    -0.20000
H1690       H  0.14006653  0.04000746  0.37293891     0.17700
H1691       H  0.05425927  0.05677644  0.44630130     0.17700
F1692       F  0.03721941  0.99133214  0.43953533    -0.20000
C1693       C  0.19091369  0.97221159  0.48719264    -0.21500
C1694       C  0.18238921  0.98135057  0.45352590    -0.09500
C1695       C  0.19267384  0.01713247  0.44702434     0.29400
C1696       C  0.20466439  0.04147912  0.47595606    -0.21500
C1697       C  0.20710334  0.03050460  0.51149732    -0.09500
C1698       C  0.20377488  0.99674426  0.51592562     0.29400
F1699       F  0.20803479  0.98553714  0.54916751    -0.20000
H1700       H  0.18321668  0.94478158  0.49273489     0.17700
H1701       H  0.20777571  0.06747254  0.47134482     0.17700
F1702       F  0.18480769  0.02683696  0.41467834    -0.20000
C1703       C  0.96225891  0.77716951  0.52288762    -0.21500
C1704       C  0.97318755  0.79463476  0.55665836    -0.09500
C1705       C  0.00971255  0.81835693  0.56232947     0.29400
C1706       C  0.03371435  0.82876017  0.53292045    -0.21500
C1707       C  0.02170374  0.81538907  0.49751771    -0.09500
C1708       C  0.98619551  0.78716232  0.49356998     0.29400
F1709       F  0.97312770  0.77261261  0.46032653    -0.20000
H1710       H  0.93418507  0.75912506  0.51777160     0.17700
H1711       H  0.06086269  0.85017987  0.53710480     0.17700
F1712       F  0.02116657  0.83606209  0.59451766    -0.20000
C1713       C  0.34501502  0.81396783  0.39253310    -0.21500
C1714       C  0.30756557  0.79272085  0.39609007    -0.09500
C1715       C  0.29324908  0.78073183  0.43115801     0.29400
C1716       C  0.31563647  0.79213102  0.46192277    -0.21500
C1717       C  0.35283350  0.81495618  0.45844048    -0.09500
C1718       C  0.36741934  0.82472726  0.42322513     0.29400
F1719       F  0.40298400  0.84681665  0.41858385    -0.20000
H1720       H  0.35699277  0.82327793  0.36586416     0.17700
H1721       H  0.30374360  0.78405668  0.48871229     0.17700
F1722       F  0.25755260  0.75998794  0.43604144    -0.20000
C1723       C  0.21402409  0.59342897  0.30822178    -0.21500
C1724       C  0.20577236  0.57551486  0.27448971    -0.09500
C1725       C  0.20301094  0.59274311  0.24327639     0.29400
C1726       C  0.20970958  0.62758317  0.24555141    -0.21500
C1727       C  0.21956769  0.64631775  0.27890914    -0.09500
C1728       C  0.22098536  0.62854545  0.31050018     0.29400
F1729       F  0.23016104  0.64531264  0.34331146    -0.20000
H1730       H  0.21665792  0.58080599  0.33257892     0.17700
H1731       H  0.20741014  0.63999500  0.22083769     0.17700
F1732       F  0.19400836  0.57596615  0.21042881    -0.20000
C1733       C  0.19073599  0.85092009  0.31232879    -0.21500
C1734       C  0.18912619  0.82224253  0.33170805    -0.09500
C1735       C  0.16295887  0.80585437  0.35928661     0.29400
C1736       C  0.13940584  0.81799940  0.36730095    -0.21500
C1737       C  0.14091985  0.84669608  0.34800749    -0.09500
C1738       C  0.16685758  0.86284557  0.32005373     0.29400
F1739       F  0.16873839  0.88966595  0.29941735    -0.20000
H1740       H  0.20989296  0.86353641  0.29045782     0.17700
H1741       H  0.12008417  0.80499321  0.38894851     0.17700
F1742       F  0.16038160  0.77825902  0.37908061    -0.20000
C1743       C  0.11411470  0.62506887  0.20499854    -0.21500
C1744       C  0.11290813  0.63379708  0.16822982    -0.09500
C1745       C  0.12074019  0.66854601  0.15974257     0.29400
C1746       C  0.13537198  0.69524316  0.18639786    -0.21500
C1747       C  0.14202323  0.68761971  0.22191959    -0.09500
C1748       C  0.12795023  0.65162262  0.23188277     0.29400
F1749       F  0.13276700  0.64270811  0.26609357    -0.20000
H1750       H  0.10823133  0.59848726  0.21218023     0.17700
H1751       H  0.14565544  0.72262212  0.17800061     0.17700
F1752       F  0.12031538  0.67815616  0.12449318    -0.20000
C1753       C  0.31150608  0.85779713  0.11221900    -0.21500
C1754       C  0.34804608  0.87881699  0.11986174    -0.09500
C1755       C  0.35842335  0.89387140  0.15489853     0.29400
C1756       C  0.33339921  0.88239315  0.18327438    -0.21500
C1757       C  0.29810802  0.85513187  0.17713399    -0.09500
C1758       C  0.28659069  0.84549863  0.14085977     0.29400
F1759       F  0.25224691  0.82044616  0.13381465    -0.20000
H1760       H  0.30280171  0.84603365  0.08543297     0.17700
H1761       H  0.34293611  0.89046261  0.21091388     0.17700
F1762       F  0.39349210  0.91456582  0.16314246    -0.20000
C1763       C  0.83511786  0.00179118  0.27891807    -0.21500
C1764       C  0.84585855  0.97630076  0.27870170    -0.09500
C1765       C  0.87403322  0.98220635  0.25513593     0.29400
C1766       C  0.88906864  0.01170675  0.23085123    -0.21500
C1767       C  0.87642833  0.03576508  0.23000951    -0.09500
C1768       C  0.84997543  0.03083907  0.25515398     0.29400
F1769       F  0.83720837  0.05348299  0.25567433    -0.20000
H1770       H  0.81434536  0.99903257  0.29731064     0.17700
H1771       H  0.90901190  0.01450981  0.21126657     0.17700
F1772       F  0.88588291  0.95884728  0.25433972    -0.20000
C1773       C  0.91799331  0.05100892  0.35935664    -0.21500
C1774       C  0.90076357  0.03883503  0.39329003    -0.09500
C1775       C  0.91794001  0.05741184  0.42517091     0.29400
C1776       C  0.95282603  0.08565939  0.42356808    -0.21500
C1777       C  0.97152626  0.09605045  0.39017024    -0.09500
C1778       C  0.95323765  0.07949854  0.35770734     0.29400
F1779       F  0.96968092  0.08964266  0.32468034    -0.20000
H1780       H  0.90507919  0.03705161  0.33448320     0.17700
H1781       H  0.96549388  0.09864604  0.44891444     0.17700
F1782       F  0.90147579  0.04724638  0.45822783    -0.20000
C1783       C  0.91786492  0.87736358  0.36799847    -0.21500
C1784       C  0.91649989  0.90212038  0.39171359    -0.09500
C1785       C  0.94070171  0.91572398  0.42100278     0.29400
C1786       C  0.96516578  0.90453466  0.42643291    -0.21500
C1787       C  0.96640213  0.87966570  0.40288007    -0.09500
C1788       C  0.94243562  0.86618881  0.37347444     0.29400
F1789       F  0.94226186  0.84183948  0.35027127    -0.20000
H1790       H  0.89931500  0.86588106  0.34561761     0.17700
H1791       H  0.98354036  0.91586974  0.44900565     0.17700
F1792       F  0.94036513  0.93919687  0.44512020    -0.20000
C1793       C  0.78505485  0.00190930  0.48391181    -0.21500
C1794       C  0.78416695  0.96945487  0.48916701    -0.09500
C1795       C  0.78712419  0.95952220  0.52512141     0.29400
C1796       C  0.79666010  0.98405318  0.55365948    -0.21500
C1797       C  0.80443862  0.01900707  0.54659171    -0.09500
C1798       C  0.79540181  0.02667484  0.51230197     0.29400
F1799       F  0.80144002  0.05982933  0.50488887    -0.20000
H1800       H  0.78210256  0.01014224  0.45670930     0.17700
H1801       H  0.80321609  0.97729144  0.58001496     0.17700
F1802       F  0.78518462  0.92796180  0.53198927    -0.20000
C1803       C  0.77522422  0.81092764  0.48390295    -0.21500
C1804       C  0.79258914  0.81563176  0.45026093    -0.09500
C1805       C  0.81508036  0.80156059  0.44596030     0.29400
C1806       C  0.82446219  0.78847702  0.47639303    -0.21500
C1807       C  0.81133329  0.78902928  0.51142858    -0.09500
C1808       C  0.78419267  0.79750407  0.51424529     0.29400
F1809       F  0.77010724  0.79802752  0.54720497    -0.20000
H1810       H  0.75819759  0.82204599  0.48794818     0.17700
H1811       H  0.84504488  0.78175298  0.47318856     0.17700
F1812       F  0.83266613  0.80607509  0.41392189    -0.20000
C1813       C  0.49992657  0.70724905  0.41342511    -0.21500
C1814       C  0.48136365  0.69344920  0.38089802    -0.09500
C1815       C  0.45249317  0.65808737  0.38034158     0.29400
C1816       C  0.44315776  0.63662032  0.41186171    -0.21500
C1817       C  0.46311701  0.64981655  0.44410435    -0.09500
C1818       C  0.49136102  0.68582620  0.44452530     0.29400
F1819       F  0.51182585  0.70042558  0.47463197    -0.20000
H1820       H  0.52257434  0.73417058  0.41418947     0.17700
H1821       H  0.42120931  0.60937399  0.41062604     0.17700
F1822       F  0.43377579  0.64417849  0.34911245    -0.20000
C1823       C  0.63673233  0.83494080  0.34436251    -0.21500
C1824       C  0.62723083  0.80628857  0.32036300    -0.09500
C1825       C  0.65406625  0.79990091  0.30802841     0.29400
C1826       C  0.68949707  0.82215638  0.31902187    -0.21500
C1827       C  0.69905885  0.85122271  0.34258617    -0.09500
C1828       C  0.67198217  0.85704297  0.35545027     0.29400
F1829       F  0.67938514  0.88438276  0.37840593    -0.20000
H1830       H  0.61673682  0.84046648  0.35461622     0.17700
H1831       H  0.70957009  0.81685980  0.30853899     0.17700
F1832       F  0.64642530  0.77299272  0.28437157    -0.20000
C1833       C  0.38804402  0.80586052  0.28027565    -0.21500
C1834       C  0.36059221  0.78507802  0.25536035    -0.09500
C1835       C  0.36355204  0.75967988  0.23407601     0.29400
C1836       C  0.39257689  0.75481903  0.23827184    -0.21500
C1837       C  0.41939067  0.77483531  0.26375056    -0.09500
C1838       C  0.41721558  0.80079232  0.28445856     0.29400
F1839       F  0.44381483  0.82204006  0.30772675    -0.20000
H1840       H  0.38665217  0.82552531  0.29695419     0.17700
H1841       H  0.39410982  0.73525645  0.22150066     0.17700
F1842       F  0.33839847  0.73924561  0.20908250    -0.20000
C1843       C  0.41438528  0.61399025  0.26764848    -0.21500
C1844       C  0.41915772  0.64002736  0.24187346    -0.09500
C1845       C  0.38900411  0.63718901  0.22459995     0.29400
C1846       C  0.35498868  0.61024614  0.23458511    -0.21500
C1847       C  0.35001305  0.58516763  0.26164319    -0.09500
C1848       C  0.38025087  0.58683398  0.27753619     0.29400
F1849       F  0.37706192  0.56218387  0.30236706    -0.20000
H1850       H  0.43708232  0.61535145  0.28131003     0.17700
H1851       H  0.33240809  0.60908089  0.22090110     0.17700
F1852       F  0.39217607  0.66080216  0.19845662    -0.20000
C1853       C  0.51556815  0.86728789  0.21917362    -0.21500
C1854       C  0.54118573  0.85820728  0.20965935    -0.09500
C1855       C  0.55786476  0.86881661  0.17538001     0.29400
C1856       C  0.54432485  0.88187011  0.14888606    -0.21500
C1857       C  0.51356905  0.88371353  0.15609795    -0.09500
C1858       C  0.50143550  0.87957999  0.19250996     0.29400
F1859       F  0.47281363  0.88253750  0.20134651    -0.20000
H1860       H  0.50248547  0.85971277  0.24567167     0.17700
H1861       H  0.55514717  0.88601728  0.12136355     0.17700
F1862       F  0.58386014  0.86191450  0.16594664    -0.20000
C1863       C  0.54750575  0.71211913  0.12516594    -0.21500
C1864       C  0.55047436  0.70248383  0.16113003    -0.09500
C1865       C  0.54424196  0.66787475  0.16751519     0.29400
C1866       C  0.52778223  0.64168505  0.14056790    -0.21500
C1867       C  0.51872703  0.65010235  0.10673765    -0.09500
C1868       C  0.53185065  0.68611316  0.09798227     0.29400
F1869       F  0.52314258  0.69513297  0.06569058    -0.20000
H1870       H  0.55226642  0.73860253  0.11948011     0.17700
H1871       H  0.51780503  0.61408306  0.14786053     0.17700
F1872       F  0.54748816  0.65759631  0.20165171    -0.20000
loop_ 
_geom_bond_atom_site_label_1 
_geom_bond_atom_site_label_2 
_geom_bond_distance 
_geom_bond_site_symmetry_2 
_ccdc_geom_bond_type 
Fe1          O17   2.042       .  S
Fe1           O7   2.060       .  S
Fe1          O14   2.050       .  S
Fe1           O6   2.050       .  S
Fe1          O12   1.944       .  S
Fe2           O5   2.043       .  S
Fe2           O9   2.087       .  S
Fe2          O13   2.067       .  S
Fe2          O18   2.095       .  S
Fe2          O12   1.964       .  S
Fe3          O21   2.091       .  S
Fe3           O8   2.063       .  S
Fe3          O15   2.078       .  S
Fe3           O4   2.097       .  S
Fe3          O12   1.965       .  S
O4           C11   1.278       .  A
O5           C19   1.261       .  A
O6           C11   1.272       .  A
O7           C10   1.264       .  A
O8           C20   1.274       .  A
O9           C22   1.280       .  A
C10          O15   1.270       .  A
C10        C1837   1.478       .  S
C11        C1854   1.474       .  S
O13          C16   1.263       .  A
O14          C16   1.261       .  A
C16        C1864   1.481       .  S
O17          C22   1.273       .  A
O18          C20   1.280       .  A
C19          O21   1.271       .  A
C19        C1814   1.475       .  S
C20        C1824   1.490       .  S
C22        C1844   1.478       .  S
Fe23         O39   2.061       .  S
Fe23         O29   2.050       .  S
Fe23         O36   2.076       .  S
Fe23         O28   2.064       .  S
Fe23         O34   1.926       .  S
Fe24         O27   2.058       .  S
Fe24         O31   2.076       .  S
Fe24         O35   2.065       .  S
Fe24         O40   2.048       .  S
Fe24         O34   1.950       .  S
Fe25         O43   2.110       .  S
Fe25         O30   2.125       .  S
Fe25         O37   2.102       .  S
Fe25         O26   2.056       .  S
Fe25         O34   1.947       .  S
O26          C33   1.266       .  A
O27          C41   1.278       .  A
O28          C33   1.269       .  A
O29          C32   1.273       .  A
O30          C42   1.271       .  A
O31          C44   1.267       .  A
C32          O37   1.283       .  A
C32        C1804   1.473       .  S
C33        C1784   1.486       .  S
O35          C38   1.275   1_565  A
O36          C38   1.278   1_565  A
C38        C1774   1.470       .  S
O39          C44   1.264       .  A
O40          C42   1.258       .  A
C41          O43   1.283       .  A
C41        C1827   1.493       .  S
C42        C1764   1.500       .  S
C44        C1794   1.488       .  S
Fe45         O61   2.045       .  S
Fe45         O51   2.069       .  S
Fe45         O58   2.060       .  S
Fe45         O50   2.046       .  S
Fe45         O56   1.946       .  S
Fe46         O49   2.035       .  S
Fe46         O53   2.116       .  S
Fe46         O57   2.063       .  S
Fe46         O62   2.117       .  S
Fe46         O56   1.957       .  S
Fe47         O65   2.118       .  S
Fe47         O52   2.072       .  S
Fe47         O59   2.073       .  S
Fe47         O48   2.123       .  S
Fe47         O56   1.965       .  S
O48          C55   1.283       .  A
O49          C63   1.259       .  A
O50          C55   1.271       .  A
O51          C54   1.267       .  A
O52          C64   1.275       .  A
O53          C66   1.286       .  A
C54          O59   1.268       .  A
C54        C1727   1.489       .  S
C55        C1747   1.487       .  S
O57          C60   1.261       .  A
O58          C60   1.262       .  A
C60        C1757   1.480       .  S
O61          C66   1.275       .  A
O62          C64   1.285       .  A
C63          O65   1.276       .  A
C63        C1714   1.497       .  S
C64        C1734   1.500       .  S
C66        C1834   1.491       .  S
Fe67         O83   2.059       .  S
Fe67         O73   2.053       .  S
Fe67         O80   2.075       .  S
Fe67         O72   2.057       .  S
Fe67         O78   1.932       .  S
Fe68         O71   2.080       .  S
Fe68         O75   2.090       .  S
Fe68         O79   2.073       .  S
Fe68         O84   2.065       .  S
Fe68         O78   1.951       .  S
Fe69         O87   2.123       .  S
Fe69         O74   2.104       .  S
Fe69         O81   2.086       .  S
Fe69         O70   2.080       .  S
Fe69         O78   1.938       .  S
O70          C77   1.272       .  A
O71          C85   1.285       .  A
O72          C77   1.268       .  A
O73          C76   1.272       .  A
O74          C86   1.268       .  A
O75          C88   1.269       .  A
C76          O81   1.278       .  A
C76        C1694   1.469       .  S
C77        C1684   1.486   1_565  S
O79          C82   1.277   1_455  A
O80          C82   1.275   1_455  A
C82        C1787   1.483       .  S
O83          C88   1.264       .  A
O84          C86   1.261       .  A
C85          O87   1.287       .  A
C85        C1737   1.505       .  S
C86        C1677   1.484       .  S
C88        C1707   1.495       .  S
Fe89        O105   2.095       .  S
Fe89         O95   2.047       .  S
Fe89        O102   2.061       .  S
Fe89         O94   2.057       .  S
Fe89        O100   1.921       .  S
Fe90         O93   2.039       .  S
Fe90         O97   2.069       .  S
Fe90        O101   2.070       .  S
Fe90        O106   2.054       .  S
Fe90        O100   1.947       .  S
Fe91        O109   2.125       .  S
Fe91         O96   2.123       .  S
Fe91        O103   2.067       .  S
Fe91         O92   2.091       .  S
Fe91        O100   1.950       .  S
O92          C99   1.280       .  A
O93         C107   1.254       .  A
O94          C99   1.275       .  A
O95          C98   1.267       .  A
O96         C108   1.287       .  A
O97         C110   1.277       .  A
C98         O103   1.269       .  A
C98        C1847   1.481       .  S
C99        C1657   1.474       .  S
O101        C104   1.264       .  A
O102        C104   1.262       .  A
C104       C1667   1.486       .  S
O105        C110   1.281       .  A
O106        C108   1.280       .  A
C107        O109   1.268       .  A
C107       C1634   1.493       .  S
C108       C1647   1.495       .  S
C110       C1724   1.480       .  S
Fe111       O127   2.064       .  S
Fe111       O117   2.047       .  S
Fe111       O124   2.046       .  S
Fe111       O116   2.064       .  S
Fe111       O122   1.941       .  S
Fe112       O115   2.107       .  S
Fe112       O119   2.059       .  S
Fe112       O123   2.109       .  S
Fe112       O128   2.027       .  S
Fe112       O122   1.953       .  S
Fe113       O131   2.052       .  S
Fe113       O118   2.113       .  S
Fe113       O125   2.121       .  S
Fe113       O114   2.061       .  S
Fe113       O122   1.961       .  S
O114        C121   1.266       .  A
O115        C129   1.281       .  A
O116        C121   1.266       .  A
O117        C120   1.272       .  A
O118        C130   1.276       .  A
O119        C132   1.260       .  A
C120        O125   1.284       .  A
C120       C1614   1.483       .  S
C121       C1777   1.482   1_455  S
O123        C126   1.285       .  A
O124        C126   1.275       .  A
C126       C1687   1.490       .  S
O127        C132   1.264       .  A
O128        C130   1.259       .  A
C129        O131   1.272       .  A
C129       C1644   1.492       .  S
C130       C1607   1.489       .  S
C132       C1627   1.480       .  S
Fe133       O149   2.057       .  S
Fe133       O139   2.047       .  S
Fe133       O146   2.045       .  S
Fe133       O138   2.062       .  S
Fe133       O144   1.942       .  S
Fe134       O137   2.101       .  S
Fe134       O141   2.060       .  S
Fe134       O145   2.109       .  S
Fe134       O150   2.026       .  S
Fe134       O144   1.954       .  S
Fe135       O153   2.057       .  S
Fe135       O140   2.106       .  S
Fe135       O147   2.124       .  S
Fe135       O136   2.060       .  S
Fe135       O144   1.959       .  S
O136        C143   1.264       .  A
O137        C151   1.281       .  A
O138        C143   1.264       .  A
O139        C142   1.273       .  A
O140        C152   1.274       .  A
O141        C154   1.260       .  A
C142        O147   1.285       .  A
C142       C1594   1.484       .  S
C143       C1564   1.480       .  S
O145        C148   1.284       .  A
O146        C148   1.276       .  A
C148       C1554   1.489       .  S
O149        C154   1.262       .  A
O150        C152   1.258       .  A
C151        O153   1.272       .  A
C151       C1577   1.488       .  S
C152       C1544   1.473       .  S
C154       C1587   1.477       .  S
Fe155       O171   2.039       .  S
Fe155       O161   2.062       .  S
Fe155       O168   2.056       .  S
Fe155       O160   2.045       .  S
Fe155       O166   1.944       .  S
Fe156       O159   2.040       .  S
Fe156       O163   2.101       .  S
Fe156       O167   2.069       .  S
Fe156       O172   2.106       .  S
Fe156       O166   1.952       .  S
Fe157       O175   2.110       .  S
Fe157       O162   2.057       .  S
Fe157       O169   2.068       .  S
Fe157       O158   2.115       .  S
Fe157       O166   1.960       .  S
O158        C165   1.282       .  A
O159        C173   1.260       .  A
O160        C165   1.272       .  A
O161        C164   1.264       .  A
O162        C174   1.273       .  A
O163        C176   1.285       .  A
C164        O169   1.268       .  A
C164       C1504   1.479       .  S
C165       C1524   1.481       .  S
O167        C170   1.262       .  A
O168        C170   1.262       .  A
C170       C1534   1.485       .  S
O171        C176   1.273       .  A
O172        C174   1.284       .  A
C173        O175   1.274       .  A
C173       C1717   1.492       .  S
C174       C1574   1.489       .  S
C176       C1514   1.483       .  S
Fe177       O193   2.048       .  S
Fe177       O183   2.047       .  S
Fe177       O190   2.044       .  S
Fe177       O182   2.045       .  S
Fe177       O188   1.940       .  S
Fe178       O181   2.025       .  S
Fe178       O185   2.101       .  S
Fe178       O189   2.071       .  S
Fe178       O194   2.098       .  S
Fe178       O188   1.955       .  S
Fe179       O197   2.105       .  S
Fe179       O184   2.057       .  S
Fe179       O191   2.064       .  S
Fe179       O180   2.117       .  S
Fe179       O188   1.969       .  S
O180        C187   1.282       .  A
O181        C195   1.257       .  A
O182        C187   1.271       .  A
O183        C186   1.262       .  A
O184        C196   1.273       .  A
O185        C198   1.284       .  A
C186        O191   1.266       .  A
C186       C1474   1.477       .  S
C187       C1494   1.479       .  S
O189        C192   1.262       .  A
O190        C192   1.258       .  A
C192       C1484   1.483       .  S
O193        C198   1.276       .  A
O194        C196   1.282       .  A
C195        O197   1.273       .  A
C195       C1817   1.494       .  S
C196       C1467   1.485       .  S
C198       C1507   1.475       .  S
Fe199       O215   2.065       .  S
Fe199       O205   2.050       .  S
Fe199       O212   2.079       .  S
Fe199       O204   2.063       .  S
Fe199       O210   1.926       .  S
Fe200       O203   2.062       .  S
Fe200       O207   2.069       .  S
Fe200       O211   2.065       .  S
Fe200       O216   2.045       .  S
Fe200       O210   1.952       .  S
Fe201       O219   2.107       .  S
Fe201       O206   2.117       .  S
Fe201       O213   2.100       .  S
Fe201       O202   2.062       .  S
Fe201       O210   1.950       .  S
O202        C209   1.267       .  A
O203        C217   1.280       .  A
O204        C209   1.269       .  A
O205        C208   1.273       .  A
O206        C218   1.268       .  A
O207        C220   1.264       .  A
C208        O213   1.281       .  A
C208       C1444   1.473       .  S
C209       C1434   1.488       .  S
O211        C214   1.278       .  A
O212        C214   1.279       .  A
C214       C1567   1.468       .  S
O215        C220   1.263       .  A
O216        C218   1.257       .  A
C217        O219   1.283       .  A
C217       C1464   1.490       .  S
C218       C1427   1.495       .  S
C220       C1454   1.489       .  S
Fe221       O237   2.076       .  S
Fe221       O227   2.060       .  S
Fe221       O234   2.061       .  S
Fe221       O226   2.050       .  S
Fe221       O232   1.927       .  S
Fe222       O225   2.062       .  S
Fe222       O229   2.060       .  S
Fe222       O233   2.086       .  S
Fe222       O238   2.059       .  S
Fe222       O232   1.951       .  S
Fe223       O241   2.100       .  S
Fe223       O228   2.110       .  S
Fe223       O235   2.065       .  S
Fe223       O224   2.087       .  S
Fe223       O232   1.942       .  S
O224        C231   1.278       .  A
O225        C239   1.262       .  A
O226        C231   1.272       .  A
O227        C230   1.269       .  A
O228        C240   1.284       .  A
O229        C242   1.275       .  A
C230        O235   1.269       .  A
C230       C1517   1.486       .  S
C231       C1414   1.471       .  S
O233        C236   1.267       .  A
O234        C236   1.263       .  A
C236       C1404   1.492       .  S
O237        C242   1.277       .  A
O238        C240   1.279       .  A
C239        O241   1.267       .  A
C239       C1637   1.482       .  S
C240       C1394   1.493       .  S
C242       C1477   1.479       .  S
Fe243       O259   2.067       .  S
Fe243       O249   2.054       .  S
Fe243       O256   2.083       .  S
Fe243       O248   2.053       .  S
Fe243       O254   1.920       .  S
Fe244       O247   2.069       .  S
Fe244       O251   2.073       .  S
Fe244       O255   2.076       .  S
Fe244       O260   2.041       .  S
Fe244       O254   1.951       .  S
Fe245       O263   2.115       .  S
Fe245       O250   2.119       .  S
Fe245       O257   2.094       .  S
Fe245       O246   2.072       .  S
Fe245       O254   1.945       .  S
O246        C253   1.268       .  A
O247        C261   1.284       .  A
O248        C253   1.267       .  A
O249        C252   1.275       .  A
O250        C262   1.266       .  A
O251        C264   1.263       .  A
C252        O257   1.281       .  A
C252       C1384   1.475       .  S
C253       C1557   1.481       .  S
O255        C258   1.281       .  A
O256        C258   1.282       .  A
C258       C1437   1.488       .  S
O259        C264   1.263       .  A
O260        C262   1.254       .  A
C261        O263   1.288       .  A
C261       C1397   1.495       .  S
C262       C1364   1.496       .  S
C264       C1374   1.493       .  S
Fe265       O281   2.073       .  S
Fe265       O271   2.054       .  S
Fe265       O278   2.077       .  S
Fe265       O270   2.061       .  S
Fe265       O276   1.934       .  S
Fe266       O269   2.058       .  S
Fe266       O273   2.059       .  S
Fe266       O277   2.064       .  S
Fe266       O282   2.053       .  S
Fe266       O276   1.951       .  S
Fe267       O285   2.106       .  S
Fe267       O272   2.103       .  S
Fe267       O279   2.086       .  S
Fe267       O268   2.065       .  S
Fe267       O276   1.945       .  S
O268        C275   1.267       .  A
O269        C283   1.279       .  A
O270        C275   1.268       .  A
O271        C274   1.274       .  A
O272        C284   1.265       .  A
O273        C286   1.262       .  A
C274        O279   1.278       .  A
C274       C1354   1.471       .  S
C275       C1324   1.488       .  S
O277        C280   1.280       .  A
O278        C280   1.279       .  A
C280       C1314   1.481       .  S
O281        C286   1.264       .  A
O282        C284   1.257       .  A
C283        O285   1.285       .  A
C283       C1334   1.489       .  S
C284       C1424   1.481       .  S
C286       C1344   1.491       .  S
Fe287       O303   2.082       .  S
Fe287       O293   2.052       .  S
Fe287       O300   2.061       .  S
Fe287       O292   2.051       .  S
Fe287       O298   1.927       .  S
Fe288       O291   2.053       .  S
Fe288       O295   2.051       .  S
Fe288       O299   2.074       .  S
Fe288       O304   2.049       .  S
Fe288       O298   1.950       .  S
Fe289       O307   2.122       .  S
Fe289       O294   2.120       .  S
Fe289       O301   2.083       .  S
Fe289       O290   2.094       .  S
Fe289       O298   1.936       .  S
O290        C297   1.279       .  A
O291        C305   1.258       .  A
O292        C297   1.273       .  A
O293        C296   1.268       .  A
O294        C306   1.288       .  A
O295        C308   1.275       .  A
C296        O301   1.272       .  A
C296       C1304   1.488       .  S
C297       C1624   1.474       .  S
O299        C302   1.264       .  A
O300        C302   1.262       .  A
C302       C1697   1.489       .  S
O303        C308   1.279       .  A
O304        C306   1.279       .  A
C305        O307   1.270       .  A
C305       C1287   1.493       .  S
C306       C1337   1.489       .  S
C308       C1297   1.478   1_545  S
Fe309       O325   2.070       .  S
Fe309       O315   2.053       .  S
Fe309       O322   2.073       .  S
Fe309       O314   2.068       .  S
Fe309       O320   1.931       .  S
Fe310       O313   2.075       .  S
Fe310       O317   2.065       .  S
Fe310       O321   2.083       .  S
Fe310       O326   2.042       .  S
Fe310       O320   1.952       .  S
Fe311       O329   2.102       .  S
Fe311       O316   2.114       .  S
Fe311       O323   2.097       .  S
Fe311       O312   2.059       .  S
Fe311       O320   1.948       .  S
O312        C319   1.266       .  A
O313        C327   1.283       .  A
O314        C319   1.269       .  A
O315        C318   1.274       .  A
O316        C328   1.268       .  A
O317        C330   1.264       .  A
C318        O323   1.281       .  A
C318       C1277   1.475       .  S
C319       C1244   1.486       .  S
O321        C324   1.281       .  A
O322        C324   1.279       .  A
C324       C1327   1.488       .  S
O325        C330   1.264       .  A
O326        C328   1.254       .  A
C327        O329   1.283       .  A
C327       C1254   1.495       .  S
C328       C1547   1.493       .  S
C330       C1264   1.491       .  S
Fe331       O347   2.041       .  S
Fe331       O337   2.057       .  S
Fe331       O344   2.052       .  S
Fe331       O336   2.044       .  S
Fe331       O342   1.936       .  S
Fe332       O335   2.025       .  S
Fe332       O339   2.111       .  S
Fe332       O343   2.066       .  S
Fe332       O348   2.110       .  S
Fe332       O342   1.949       .  S
Fe333       O351   2.103       .  S
Fe333       O338   2.053       .  S
Fe333       O345   2.064       .  S
Fe333       O334   2.120       .  S
Fe333       O342   1.959       .  S
O334        C341   1.284       .  A
O335        C349   1.259       .  A
O336        C341   1.272       .  A
O337        C340   1.263       .  A
O338        C350   1.272       .  A
O339        C352   1.286       .  A
C340        O345   1.265       .  A
C340       C1237   1.480   1_545  S
C341       C1797   1.477       .  S
O343        C346   1.262       .  A
O344        C346   1.260       .  A
C346       C1617   1.479       .  S
O347        C352   1.275       .  A
O348        C350   1.284       .  A
C349        O351   1.274       .  A
C349       C1224   1.484       .  S
C350       C1257   1.492       .  S
C352       C1307   1.486   1_655  S
Fe353       O369   2.063       .  S
Fe353       O359   2.045       .  S
Fe353       O366   2.078       .  S
Fe353       O358   2.057       .  S
Fe353       O364   1.931       .  S
Fe354       O357   2.072       .  S
Fe354       O361   2.061       .  S
Fe354       O365   2.081       .  S
Fe354       O370   2.043       .  S
Fe354       O364   1.947       .  S
Fe355       O373   2.093       .  S
Fe355       O360   2.114       .  S
Fe355       O367   2.101       .  S
Fe355       O356   2.052       .  S
Fe355       O364   1.942       .  S
O356        C363   1.266       .  A
O357        C371   1.284       .  A
O358        C363   1.268       .  A
O359        C362   1.272       .  A
O360        C372   1.267       .  A
O361        C374   1.260       .  A
C362        O367   1.280       .  A
C362       C1217   1.475       .  S
C363       C1317   1.481       .  S
O365        C368   1.283       .  A
O366        C368   1.281       .  A
C368       C1247   1.487       .  S
O369        C374   1.260       .  A
O370        C372   1.255       .  A
C371        O373   1.282       .  A
C371       C1194   1.490       .  S
C372       C1367   1.490       .  S
C374       C1204   1.487       .  S
Fe375       O391   2.074       .  S
Fe375       O381   2.056       .  S
Fe375       O388   2.059       .  S
Fe375       O380   2.048       .  S
Fe375       O386   1.927       .  S
Fe376       O379   2.050       .  S
Fe376       O383   2.067       .  S
Fe376       O387   2.083       .  S
Fe376       O392   2.065       .  S
Fe376       O386   1.949       .  S
Fe377       O395   2.111       .  S
Fe377       O382   2.096       .  S
Fe377       O389   2.052       .  S
Fe377       O378   2.101       .  S
Fe377       O386   1.944       .  S
O378        C385   1.281       .  A
O379        C393   1.259       .  A
O380        C385   1.271       .  A
O381        C384   1.268       .  A
O382        C394   1.281       .  A
O383        C396   1.276       .  A
C384        O389   1.267       .  A
C384       C1294   1.479   1_655  S
C385       C1704   1.475       .  S
O387        C390   1.267       .  A
O388        C390   1.263       .  A
C390       C1807   1.490       .  S
O391        C396   1.277       .  A
O392        C394   1.281       .  A
C393        O395   1.269       .  A
C393       C1187   1.493       .  S
C394       C1197   1.489       .  S
C396       C1234   1.475       .  S
Fe397       O413   2.068       .  S
Fe397       O403   2.052       .  S
Fe397       O410   2.077       .  S
Fe397       O402   2.068       .  S
Fe397       O408   1.934       .  S
Fe398       O401   2.069       .  S
Fe398       O405   2.063       .  S
Fe398       O409   2.077       .  S
Fe398       O414   2.051       .  S
Fe398       O408   1.954       .  S
Fe399       O417   2.102       .  S
Fe399       O404   2.110       .  S
Fe399       O411   2.099       .  S
Fe399       O400   2.053       .  S
Fe399       O408   1.940       .  S
O400        C407   1.266       .  A
O401        C415   1.282       .  A
O402        C407   1.270       .  A
O403        C406   1.272       .  A
O404        C416   1.267       .  A
O405        C418   1.262       .  A
C406        O411   1.281       .  A
C406       C1487   1.477       .  S
C407       C1154   1.485       .  S
O409        C412   1.280       .  A
O410        C412   1.279       .  A
C412       C1177   1.487       .  S
O413        C418   1.263       .  A
O414        C416   1.257       .  A
C415        O417   1.283       .  A
C415       C1164   1.493       .  S
C416       C1144   1.485       .  S
C418       C1527   1.488       .  S
Fe419       O435   2.080       .  S
Fe419       O425   2.055       .  S
Fe419       O432   2.060       .  S
Fe419       O424   2.050       .  S
Fe419       O430   1.930       .  S
Fe420       O423   2.064       .  S
Fe420       O427   2.066       .  S
Fe420       O431   2.088       .  S
Fe420       O436   2.069       .  S
Fe420       O430   1.950       .  S
Fe421       O439   2.098       .  S
Fe421       O426   2.099       .  S
Fe421       O433   2.061       .  S
Fe421       O422   2.087       .  S
Fe421       O430   1.941       .  S
O422        C429   1.277       .  A
O423        C437   1.262       .  A
O424        C429   1.272       .  A
O425        C428   1.268       .  A
O426        C438   1.282       .  A
O427        C440   1.277       .  A
C428        O433   1.268       .  A
C428       C1107   1.477   1_565  S
C429       C1124   1.471       .  S
O431        C434   1.267       .  A
O432        C434   1.262       .  A
C434       C1137   1.493   1_556  S
O435        C440   1.278       .  A
O436        C438   1.282       .  A
C437        O439   1.267       .  A
C437       C1184   1.481       .  S
C438       C1167   1.492       .  S
C440       C1114   1.485       .  S
Fe441       O457   2.063       .  S
Fe441       O447   2.040       .  S
Fe441       O454   2.073       .  S
Fe441       O446   2.058       .  S
Fe441       O452   1.927       .  S
Fe442       O445   2.073       .  S
Fe442       O449   2.069       .  S
Fe442       O453   2.084       .  S
Fe442       O458   2.042       .  S
Fe442       O452   1.949       .  S
Fe443       O461   2.094       .  S
Fe443       O448   2.118       .  S
Fe443       O455   2.107       .  S
Fe443       O444   2.048       .  S
Fe443       O452   1.948       .  S
O444        C451   1.265       .  A
O445        C459   1.284       .  A
O446        C451   1.268       .  A
O447        C450   1.271       .  A
O448        C460   1.267       .  A
O449        C462   1.263       .  A
C450        O455   1.282       .  A
C450       C1407   1.477       .  S
C451       C1094   1.480       .  S
O453        C456   1.282       .  A
O454        C456   1.278       .  A
C456       C1157   1.487       .  S
O457        C462   1.262       .  A
O458        C460   1.254       .  A
C459        O461   1.283       .  A
C459       C1084   1.490       .  S
C460       C1077   1.494       .  S
C462       C1497   1.490       .  S
Fe463       O479   2.033       .  S
Fe463       O469   2.068       .  S
Fe463       O476   2.067       .  S
Fe463       O468   2.045       .  S
Fe463       O474   1.938       .  S
Fe464       O467   2.027       .  S
Fe464       O471   2.104       .  S
Fe464       O475   2.063       .  S
Fe464       O480   2.106       .  S
Fe464       O474   1.947       .  S
Fe465       O483   2.102       .  S
Fe465       O470   2.045       .  S
Fe465       O477   2.062       .  S
Fe465       O466   2.116       .  S
Fe465       O474   1.960       .  S
O466        C473   1.282       .  A
O467        C481   1.258       .  A
O468        C473   1.272       .  A
O469        C472   1.267       .  A
O470        C482   1.271       .  A
O471        C484   1.285       .  A
C472        O477   1.265       .  A
C472       C1047   1.482       .  S
C473       C1054   1.480       .  S
O475        C478   1.262       .  A
O476        C478   1.263       .  A
C478       C1067   1.484       .  S
O479        C484   1.273       .  A
O480        C482   1.283       .  A
C481        O483   1.273       .  A
C481       C1227   1.482       .  S
C482       C1087   1.489       .  S
C484       C1104   1.482   1_455  S
Fe485       O501   2.066       .  S
Fe485       O491   2.052       .  S
Fe485       O498   2.074       .  S
Fe485       O490   2.059       .  S
Fe485       O496   1.934       .  S
Fe486       O489   2.074       .  S
Fe486       O493   2.063       .  S
Fe486       O497   2.071       .  S
Fe486       O502   2.047       .  S
Fe486       O496   1.956       .  S
Fe487       O505   2.094       .  S
Fe487       O492   2.103       .  S
Fe487       O499   2.096       .  S
Fe487       O488   2.065       .  S
Fe487       O496   1.947       .  S
O488        C495   1.268       .  A
O489        C503   1.283       .  A
O490        C495   1.268       .  A
O491        C494   1.273       .  A
O492        C504   1.267       .  A
O493        C506   1.262       .  A
C494        O499   1.280       .  A
C494       C1537   1.476       .  S
C495       C1174   1.487       .  S
O497        C500   1.280       .  A
O498        C500   1.279       .  A
C500       C1097   1.483       .  S
O501        C506   1.262       .  A
O502        C504   1.257       .  A
C503        O505   1.282       .  A
C503       C1034   1.490       .  S
C504       C1024   1.486       .  S
C506       C1417   1.490       .  S
Fe507       O523   2.069       .  S
Fe507       O513   2.067       .  S
Fe507       O520   2.060       .  S
Fe507       O512   2.032       .  S
Fe507       O518   1.925       .  S
Fe508       O511   2.045       .  S
Fe508       O515   2.072       .  S
Fe508       O519   2.079       .  S
Fe508       O524   2.064       .  S
Fe508       O518   1.952       .  S
Fe509       O527   2.132       .  S
Fe509       O514   2.110       .  S
Fe509       O521   2.051       .  S
Fe509       O510   2.114       .  S
Fe509       O518   1.945       .  S
O510        C517   1.285       .  A
O511        C525   1.256       .  A
O512        C517   1.269       .  A
O513        C516   1.270       .  A
O514        C526   1.284       .  A
O515        C528   1.278       .  A
C516        O521   1.266       .  A
C516       C1117   1.484   1_455  S
C517       C1017   1.476       .  S
O519        C522   1.266       .  A
O520        C522   1.262       .  A
C522       C1004   1.488       .  S
O523        C528   1.277       .  A
O524        C526   1.282       .  A
C525        O527   1.270       .  A
C525       C1284   1.504       .  S
C526       C1037   1.489       .  S
C528       C1044   1.475   1_565  S
Fe529       O545   2.087       .  S
Fe529       O535   2.058       .  S
Fe529       O542   2.063       .  S
Fe529       O534   2.051       .  S
Fe529       O540   1.927       .  S
Fe530       O533   2.049   1_556  S
Fe530       O537   2.073       .  S
Fe530       O541   2.078       .  S
Fe530       O546   2.065       .  S
Fe530       O540   1.952       .  S
Fe531       O549   2.122   1_556  S
Fe531       O536   2.123       .  S
Fe531       O543   2.077       .  S
Fe531       O532   2.095       .  S
Fe531       O540   1.944       .  S
O532        C539   1.280       .  A
O533        C547   1.258       .  A
O534        C539   1.273       .  A
O535        C538   1.269       .  A
O536        C548   1.288       .  A
O537        C550   1.278       .  A
C538        O543   1.272       .  A
C538        C974   1.491       .  S
C539       C1347   1.475       .  S
O541        C544   1.265       .  A
O542        C544   1.262       .  A
C544       C1214   1.490       .  S
O545        C550   1.280       .  A
O546        C548   1.281       .  A
C547        O549   1.270       .  A
C547        C964   1.500       .  S
C548        C994   1.499       .  S
C550        C984   1.483       .  S
Fe551       O567   2.068       .  S
Fe551       O557   2.057       .  S
Fe551       O564   2.078       .  S
Fe551       O556   2.064       .  S
Fe551       O562   1.933       .  S
Fe552       O555   2.064       .  S
Fe552       O559   2.068       .  S
Fe552       O563   2.066       .  S
Fe552       O568   2.056   1_554  S
Fe552       O562   1.956       .  S
Fe553       O571   2.114       .  S
Fe553       O558   2.101   1_554  S
Fe553       O565   2.085       .  S
Fe553       O554   2.074       .  S
Fe553       O562   1.945       .  S
O554        C561   1.270       .  A
O555        C569   1.280       .  A
O556        C561   1.269       .  A
O557        C560   1.274       .  A
O558        C570   1.267       .  A
O559        C572   1.263       .  A
C560        O565   1.278       .  A
C560       C1867   1.472       .  S
C561        C957   1.492       .  S
O563        C566   1.278       .  A
O564        C566   1.279       .  A
C566        C944   1.478       .  S
O567        C572   1.264       .  A
O568        C570   1.259       .  A
C569        O571   1.285       .  A
C569        C997   1.498       .  S
C570       C1074   1.481       .  S
C572       C1654   1.491       .  S
Fe573       O589   2.047       .  S
Fe573       O579   2.052       .  S
Fe573       O586   2.050       .  S
Fe573       O578   2.045       .  S
Fe573       O584   1.944       .  S
Fe574       O577   2.029       .  S
Fe574       O581   2.104       .  S
Fe574       O585   2.063       .  S
Fe574       O590   2.102       .  S
Fe574       O584   1.956       .  S
Fe575       O593   2.103   1_556  S
Fe575       O580   2.058       .  S
Fe575       O587   2.062       .  S
Fe575       O576   2.113       .  S
Fe575       O584   1.967       .  S
O576        C583   1.281       .  A
O577        C591   1.258   1_556  A
O578        C583   1.271       .  A
O579        C582   1.262       .  A
O580        C592   1.274       .  A
O581        C594   1.285       .  A
C582        O587   1.266       .  A
C582        C924   1.461       .  S
C583       C1267   1.480       .  S
O585        C588   1.261       .  A
O586        C588   1.260       .  A
C588       C1357   1.480       .  S
O589        C594   1.274       .  A
O590        C592   1.282       .  A
C591        O593   1.273       .  A
C591        C914   1.488       .  S
C592        C934   1.486       .  S
C594        C977   1.487       .  S
Fe595       O611   2.062       .  S
Fe595       O601   2.051       .  S
Fe595       O608   2.087       .  S
Fe595       O600   2.054       .  S
Fe595       O606   1.921       .  S
Fe596       O599   2.064       .  S
Fe596       O603   2.065       .  S
Fe596       O607   2.077       .  S
Fe596       O612   2.038   1_554  S
Fe596       O606   1.950       .  S
Fe597       O615   2.116       .  S
Fe597       O602   2.126   1_554  S
Fe597       O609   2.099       .  S
Fe597       O598   2.070       .  S
Fe597       O606   1.945       .  S
O598        C605   1.270       .  A
O599        C613   1.283       .  A
O600        C605   1.267       .  A
O601        C604   1.274       .  A
O602        C614   1.267       .  A
O603        C616   1.262       .  A
C604        O609   1.281       .  A
C604       C1754   1.476       .  S
C605        C907   1.485       .  S
O607        C610   1.281       .  A
O608        C610   1.282       .  A
C610        C954   1.489       .  S
O611        C616   1.261       .  A
O612        C614   1.253       .  A
C613        O615   1.287       .  A
C613        C937   1.492       .  S
C614       C1147   1.496       .  S
C616       C1857   1.486       .  S
Fe617       O633   2.053       .  S
Fe617       O623   2.039       .  S
Fe617       O630   2.040       .  S
Fe617       O622   2.061       .  S
Fe617       O628   1.937       .  S
Fe618       O621   2.116       .  S
Fe618       O625   2.069       .  S
Fe618       O629   2.113       .  S
Fe618       O634   2.030       .  S
Fe618       O628   1.948       .  S
Fe619       O637   2.052       .  S
Fe619       O624   2.106   1_554  S
Fe619       O631   2.120       .  S
Fe619       O620   2.060       .  S
Fe619       O628   1.959       .  S
O620        C627   1.264       .  A
O621        C635   1.285       .  A
O622        C627   1.264       .  A
O623        C626   1.272       .  A
O624        C636   1.274       .  A
O625        C638   1.263       .  A
C626        O631   1.284       .  A
C626       C1664   1.477       .  S
C627        C947   1.479       .  S
O629        C632   1.286       .  A
O630        C632   1.275       .  A
C632        C904   1.485       .  S
O633        C638   1.260       .  A
O634        C636   1.259   1_554  A
C635        O637   1.271       .  A
C635        C894   1.498       .  S
C636       C1027   1.478       .  S
C638       C1744   1.480       .  S
Fe639       O655   2.041       .  S
Fe639       O645   2.067       .  S
Fe639       O652   2.058       .  S
Fe639       O644   2.048       .  S
Fe639       O650   1.941       .  S
Fe640       O643   2.034   1_556  S
Fe640       O647   2.098       .  S
Fe640       O651   2.068       .  S
Fe640       O656   2.107       .  S
Fe640       O650   1.960       .  S
Fe641       O659   2.104   1_556  S
Fe641       O646   2.059       .  S
Fe641       O653   2.071       .  S
Fe641       O642   2.109       .  S
Fe641       O650   1.963       .  S
O642        C649   1.281       .  A
O643        C657   1.259       .  A
O644        C649   1.273       .  A
O645        C648   1.265       .  A
O646        C658   1.272       .  A
O647        C660   1.282       .  A
C648        O653   1.268       .  A
C648        C987   1.490       .  S
C649       C1207   1.477       .  S
O651        C654   1.263       .  A
O652        C654   1.263       .  A
C654       C1274   1.482       .  S
O655        C660   1.275       .  A
O656        C658   1.282       .  A
C657        O659   1.274       .  A
C657        C884   1.483       .  S
C658        C897   1.497       .  S
C660        C927   1.484       .  S
Fe661       O677   2.070       .  S
Fe661       O667   2.049       .  S
Fe661       O674   2.074       .  S
Fe661       O666   2.062       .  S
Fe661       O672   1.927       .  S
Fe662       O665   2.061       .  S
Fe662       O669   2.071       .  S
Fe662       O673   2.063       .  S
Fe662       O678   2.048       .  S
Fe662       O672   1.956       .  S
Fe663       O681   2.103       .  S
Fe663       O668   2.118       .  S
Fe663       O675   2.104       .  S
Fe663       O664   2.069       .  S
Fe663       O672   1.950       .  S
O664        C671   1.268       .  A
O665        C679   1.280       .  A
O666        C671   1.269       .  A
O667        C670   1.273       .  A
O668        C680   1.269       .  A
O669        C682   1.263       .  A
C670        O675   1.282       .  A
C670       C1134   1.475       .  S
C671        C867   1.488       .  S
O673        C676   1.278       .  A
O674        C676   1.279       .  A
C676        C854   1.467   1_655  S
O677        C682   1.263       .  A
O678        C680   1.257       .  A
C679        O681   1.284       .  A
C679        C874   1.489       .  S
C680       C1674   1.496       .  S
C682       C1014   1.493       .  S
Fe683       O699   2.080       .  S
Fe683       O689   2.060       .  S
Fe683       O696   2.059       .  S
Fe683       O688   2.045       .  S
Fe683       O694   1.929       .  S
Fe684       O687   2.058       .  S
Fe684       O691   2.050       .  S
Fe684       O695   2.085       .  S
Fe684       O700   2.052       .  S
Fe684       O694   1.953       .  S
Fe685       O703   2.115       .  S
Fe685       O690   2.109       .  S
Fe685       O697   2.078       .  S
Fe685       O686   2.096       .  S
Fe685       O694   1.942       .  S
O686        C693   1.280       .  A
O687        C701   1.262       .  A
O688        C693   1.270       .  A
O689        C692   1.269       .  A
O690        C702   1.283       .  A
O691        C704   1.274       .  A
C692        O697   1.272       .  A
C692        C834   1.488       .  S
C693       C1377   1.473       .  S
O695        C698   1.266       .  A
O696        C698   1.261       .  A
C698       C1447   1.490       .  S
O699        C704   1.278       .  A
O700        C702   1.279       .  A
C701        O703   1.272       .  A
C701        C967   1.490       .  S
C702        C877   1.489       .  S
C704        C847   1.473       .  S
Fe705       O721   2.061       .  S
Fe705       O711   2.057       .  S
Fe705       O718   2.087       .  S
Fe705       O710   2.057       .  S
Fe705       O716   1.928       .  S
Fe706       O709   2.070       .  S
Fe706       O713   2.077       .  S
Fe706       O717   2.074       .  S
Fe706       O722   2.049       .  S
Fe706       O716   1.956       .  S
Fe707       O725   2.123       .  S
Fe707       O712   2.117       .  S
Fe707       O719   2.097       .  S
Fe707       O708   2.070       .  S
Fe707       O716   1.940       .  S
O708        C715   1.269       .  A
O709        C723   1.283       .  A
O710        C715   1.268       .  A
O711        C714   1.273       .  A
O712        C724   1.267       .  A
O713        C726   1.264       .  A
C714        O719   1.281       .  A
C714       C1064   1.480       .  S
C715        C814   1.482   1_655  S
O717        C720   1.279       .  A
O718        C720   1.280       .  A
C720        C864   1.489   1_545  S
O721        C726   1.262       .  A
O722        C724   1.256       .  A
C723        O725   1.288       .  A
C723        C824   1.499       .  S
C724       C1767   1.490       .  S
C726       C1127   1.489       .  S
Fe727       O743   2.043       .  S
Fe727       O733   2.060       .  S
Fe727       O740   2.057       .  S
Fe727       O732   2.047       .  S
Fe727       O738   1.945       .  S
Fe728       O731   2.022       .  S
Fe728       O735   2.117       .  S
Fe728       O739   2.064       .  S
Fe728       O744   2.113       .  S
Fe728       O738   1.958       .  S
Fe729       O747   2.115       .  S
Fe729       O734   2.069       .  S
Fe729       O741   2.072       .  S
Fe729       O730   2.113       .  S
Fe729       O738   1.968       .  S
O730        C737   1.282       .  A
O731        C745   1.257       .  A
O732        C737   1.272       .  A
O733        C736   1.264       .  A
O734        C746   1.275       .  A
O735        C748   1.286       .  A
C736        O741   1.268       .  A
C736        C804   1.475       .  S
C737       C1584   1.482       .  S
O739        C742   1.261       .  A
O740        C742   1.262       .  A
C742       C1387   1.482       .  S
O743        C748   1.274       .  A
O744        C746   1.284       .  A
C745        O747   1.275       .  A
C745        C887   1.492       .  S
C746        C827   1.504       .  S
C748        C837   1.493       .  S
Fe749       O765   2.041       .  S
Fe749       O755   2.056       .  S
Fe749       O762   2.046       .  S
Fe749       O754   2.046       .  S
Fe749       O760   1.941       .  S
Fe750       O753   2.027       .  S
Fe750       O757   2.111       .  S
Fe750       O761   2.073       .  S
Fe750       O766   2.116       .  S
Fe750       O760   1.957       .  S
Fe751       O769   2.104       .  S
Fe751       O756   2.052       .  S
Fe751       O763   2.058       .  S
Fe751       O752   2.117       .  S
Fe751       O760   1.964       .  S
O752        C759   1.282       .  A
O753        C767   1.258       .  A
O754        C759   1.272       .  A
O755        C758   1.264       .  A
O756        C768   1.271       .  A
O757        C770   1.284       .  A
C758        O763   1.265       .  A
C758        C844   1.478       .  S
C759       C1457   1.481       .  S
O761        C764   1.264       .  A
O762        C764   1.260       .  A
C764       C1597   1.478       .  S
O765        C770   1.275       .  A
O766        C768   1.286       .  A
C767        O769   1.273       .  A
C767        C917   1.481       .  S
C768        C797   1.497       .  S
C770        C807   1.489       .  S
Fe771       O787   2.053       .  S
Fe771       O777   2.035       .  S
Fe771       O784   2.031       .  S
Fe771       O776   2.064       .  S
Fe771       O782   1.936       .  S
Fe772       O775   2.122       .  S
Fe772       O779   2.065       .  S
Fe772       O783   2.123       .  S
Fe772       O788   2.022       .  S
Fe772       O782   1.948       .  S
Fe773       O791   2.043       .  S
Fe773       O778   2.116       .  S
Fe773       O785   2.134       .  S
Fe773       O774   2.053       .  S
Fe773       O782   1.951       .  S
O774        C781   1.262       .  A
O775        C789   1.286       .  A
O776        C781   1.264       .  A
O777        C780   1.271       .  A
O778        C790   1.277       .  A
O779        C792   1.261       .  A
C780        O785   1.287       .  A
C780       C1007   1.481       .  S
C781        C857   1.478   1_545  S
O783        C786   1.288       .  A
O784        C786   1.273       .  A
C786        C817   1.490       .  S
O787        C792   1.261       .  A
O788        C790   1.258       .  A
C789        O791   1.269       .  A
C789        C794   1.499       .  S
C790       C1604   1.489       .  S
C792       C1057   1.476       .  S
C793        C794   1.403       .  A
C793        C798   1.405       .  A
C793        H800   1.082       .  S
C794        C795   1.419       .  A
C795        C796   1.400       .  A
C795        F802   1.357       .  S
C796        C797   1.401       .  A
C796        H801   1.082       .  S
C797        C798   1.419       .  A
C798        F799   1.358       .  S
C803        C804   1.405       .  A
C803        C808   1.407       .  A
C803        H810   1.084       .  S
C804        C805   1.403       .  A
C805        C806   1.390       .  A
C805        F812   1.358       .  S
C806        C807   1.407       .  A
C806        H811   1.084       .  S
C807        C808   1.413       .  A
C808        F809   1.357       .  S
C813        C814   1.408       .  A
C813        C818   1.404       .  A
C813        H820   1.080       .  S
C814        C815   1.404       .  A
C815        C816   1.394       .  A
C815        F822   1.358   1_455  S
C816        C817   1.411       .  A
C816        H821   1.081       .  S
C817        C818   1.409       .  A
C818        F819   1.357       .  S
C823        C824   1.411       .  A
C823        C828   1.408       .  A
C823        H830   1.083       .  S
C824        C825   1.408       .  A
C825        C826   1.402       .  A
C825        F832   1.358       .  S
C826        C827   1.412       .  A
C826        H831   1.083       .  S
C827        C828   1.410       .  A
C828        F829   1.357       .  S
C833        C834   1.409       .  A
C833        C838   1.404       .  A
C833        H840   1.083       .  S
C834        C835   1.407       .  A
C835        C836   1.397       .  A
C835        F842   1.358       .  S
C836        C837   1.410       .  A
C836        H841   1.082       .  S
C837        C838   1.409       .  A
C838        F839   1.356       .  S
C843        C844   1.408       .  A
C843        C848   1.390       .  A
C843        H850   1.082       .  S
C844        C845   1.407       .  A
C845        C846   1.398       .  A
C845        F852   1.357       .  S
C846        C847   1.407       .  A
C846        H851   1.082       .  S
C847        C848   1.405       .  A
C848        F849   1.358       .  S
C853        C854   1.404       .  A
C853        C858   1.400       .  A
C853        H860   1.083       .  S
C854        C855   1.403       .  A
C855        C856   1.388       .  A
C855        F862   1.358       .  S
C856        C857   1.406       .  A
C856        H861   1.083       .  S
C857        C858   1.410       .  A
C858        F859   1.357       .  S
C863        C864   1.409       .  A
C863        C868   1.405       .  A
C863        H870   1.082       .  S
C864        C865   1.410       .  A
C865        C866   1.394       .  A
C865        F872   1.358       .  S
C866        C867   1.406       .  A
C866        H871   1.083       .  S
C867        C868   1.411       .  A
C868        F869   1.357       .  S
C873        C874   1.407       .  A
C873        C878   1.402       .  A
C873        H880   1.082       .  S
C874        C875   1.411       .  A
C875        C876   1.395       .  A
C875        F882   1.357       .  S
C876        C877   1.404       .  A
C876        H881   1.082       .  S
C877        C878   1.412       .  A
C878        F879   1.358       .  S
C883        C884   1.395       .  A
C883        C888   1.399       .  A
C883        H890   1.083       .  S
C884        C885   1.414       .  A
C885        C886   1.405       .  A
C885        F892   1.356       .  S
C886        C887   1.401       .  A
C886        H891   1.083       .  S
C887        C888   1.418       .  A
C888        F889   1.355       .  S
C893        C894   1.414   1_556  A
C893        C898   1.403   1_455  A
C893        H900   1.083       .  S
C894        C895   1.406   1_455  A
C895        C896   1.403       .  A
C895        F902   1.357   1_655  S
C896        C897   1.413   1_554  A
C896        H901   1.083       .  S
C897        C898   1.407       .  A
C898        F899   1.358       .  S
C903        C904   1.407       .  A
C903        C908   1.395       .  A
C903        H910   1.083       .  S
C904        C905   1.408       .  A
C905        C906   1.402       .  A
C905        F912   1.357       .  S
C906        C907   1.408       .  A
C906        H911   1.082       .  S
C907        C908   1.408       .  A
C908        F909   1.358       .  S
C913        C914   1.415       .  A
C913        C918   1.402       .  A
C913        H920   1.080       .  S
C914        C915   1.402       .  A
C915        C916   1.402       .  A
C915        F922   1.357       .  S
C916        C917   1.411       .  A
C916        H921   1.079       .  S
C917        C918   1.400       .  A
C918        F919   1.357       .  S
C923        C924   1.401       .  A
C923        C928   1.402       .  A
C923        H930   1.083       .  S
C924        C925   1.400       .  A
C925        C926   1.390       .  A
C925        F932   1.358       .  S
C926        C927   1.408       .  A
C926        H931   1.083       .  S
C927        C928   1.412       .  A
C928        F929   1.357       .  S
C933        C934   1.408   1_554  A
C933        C938   1.399   1_545  A
C933        H940   1.082       .  S
C934        C935   1.406       .  A
C935        C936   1.403   1_545  A
C935        F942   1.357       .  S
C936        C937   1.411   1_556  A
C936        H941   1.082       .  S
C937        C938   1.408       .  A
C938        F939   1.358       .  S
C943        C944   1.407       .  A
C943        C948   1.401       .  A
C943        H950   1.083       .  S
C944        C945   1.407       .  A
C945        C946   1.389       .  A
C945        F952   1.358       .  S
C946        C947   1.405       .  A
C946        H951   1.084       .  S
C947        C948   1.408       .  A
C948        F949   1.357       .  S
C953        C954   1.408       .  A
C953        C958   1.396       .  A
C953        H960   1.081       .  S
C954        C955   1.408       .  A
C955        C956   1.404       .  A
C955        F962   1.357       .  S
C956        C957   1.410       .  A
C956        H961   1.081       .  S
C957        C958   1.409       .  A
C958        F959   1.358       .  S
C963        C964   1.409       .  A
C963        C968   1.393       .  A
C963        H970   1.083       .  S
C964        C965   1.412       .  A
C965        C966   1.417       .  A
C965        F972   1.357       .  S
C966        C967   1.411       .  A
C966        H971   1.083       .  S
C967        C968   1.404       .  A
C968        F969   1.358       .  S
C973        C974   1.408       .  A
C973        C978   1.398       .  A
C973        H980   1.084       .  S
C974        C975   1.411       .  A
C975        C976   1.401       .  A
C975        F982   1.357       .  S
C976        C977   1.405       .  A
C976        H981   1.084       .  S
C977        C978   1.410       .  A
C978        F979   1.358       .  S
C983        C984   1.403       .  A
C983        C988   1.394       .  A
C983        H990   1.083       .  S
C984        C985   1.410       .  A
C985        C986   1.404       .  A
C985        F992   1.357   1_556  S
C986        C987   1.407       .  A
C986        H991   1.082       .  S
C987        C988   1.413       .  A
C988        F989   1.358       .  S
C993        C994   1.408       .  A
C993        C998   1.403       .  A
C993       H1000   1.083       .  S
C994        C995   1.413   1_556  A
C995        C996   1.403       .  A
C995       F1002   1.357       .  S
C996        C997   1.407       .  A
C996       H1001   1.083       .  S
C997        C998   1.412   1_554  A
C998        F999   1.357       .  S
C1003      C1004   1.407   1_545  A
C1003      C1008   1.399   1_556  A
C1003      H1010   1.084       .  S
C1004      C1005   1.410   1_556  A
C1005      C1006   1.402       .  A
C1005      F1012   1.357       .  S
C1006      C1007   1.405   1_565  A
C1006      H1011   1.085       .  S
C1007      C1008   1.408       .  A
C1008      F1009   1.358   1_554  S
C1013      C1014   1.409   1_455  A
C1013      C1018   1.400   1_554  A
C1013      H1020   1.081       .  S
C1014      C1015   1.410   1_554  A
C1015      C1016   1.405       .  A
C1015      F1022   1.357       .  S
C1016      C1017   1.406   1_655  A
C1016      H1021   1.083       .  S
C1017      C1018   1.408       .  A
C1018      F1019   1.358       .  S
C1023      C1024   1.411       .  A
C1023      C1028   1.401       .  A
C1023      H1030   1.084       .  S
C1024      C1025   1.404       .  A
C1025      C1026   1.405       .  A
C1025      F1032   1.357       .  S
C1026      C1027   1.411       .  A
C1026      H1031   1.084       .  S
C1027      C1028   1.399       .  A
C1028      F1029   1.357       .  S
C1033      C1034   1.405       .  A
C1033      C1038   1.403       .  A
C1033      H1040   1.083       .  S
C1034      C1035   1.413       .  A
C1035      C1036   1.397       .  A
C1035      F1042   1.358       .  S
C1036      C1037   1.403       .  A
C1036      H1041   1.083       .  S
C1037      C1038   1.413       .  A
C1038      F1039   1.357       .  S
C1043      C1044   1.406       .  A
C1043      C1048   1.403       .  A
C1043      H1050   1.085       .  S
C1044      C1045   1.406       .  A
C1045      C1046   1.388       .  A
C1045      F1052   1.359       .  S
C1046      C1047   1.406       .  A
C1046      H1051   1.084       .  S
C1047      C1048   1.410       .  A
C1048      F1049   1.357       .  S
C1053      C1054   1.406       .  A
C1053      C1058   1.400   1_556  A
C1053      H1060   1.083       .  S
C1054      C1055   1.410       .  A
C1055      C1056   1.399       .  A
C1055      F1062   1.358       .  S
C1056      C1057   1.404   1_556  A
C1056      H1061   1.084       .  S
C1057      C1058   1.407       .  A
C1058      F1059   1.357       .  S
C1063      C1064   1.407   1_455  A
C1063      C1068   1.403       .  A
C1063      H1070   1.081       .  S
C1064      C1065   1.407       .  A
C1065      C1066   1.403   1_554  A
C1065      F1072   1.358       .  S
C1066      C1067   1.407   1_655  A
C1066      H1071   1.082       .  S
C1067      C1068   1.407   1_556  A
C1068      F1069   1.357       .  S
C1073      C1074   1.410       .  A
C1073      C1078   1.413       .  A
C1073      H1080   1.083       .  S
C1074      C1075   1.401       .  A
C1075      C1076   1.393       .  A
C1075      F1082   1.358       .  S
C1076      C1077   1.410       .  A
C1076      H1081   1.083       .  S
C1077      C1078   1.410       .  A
C1078      F1079   1.357       .  S
C1083      C1084   1.412       .  A
C1083      C1088   1.400       .  A
C1083      H1090   1.082       .  S
C1084      C1085   1.406       .  A
C1085      C1086   1.399       .  A
C1085      F1092   1.357       .  S
C1086      C1087   1.412       .  A
C1086      H1091   1.082       .  S
C1087      C1088   1.405       .  A
C1088      F1089   1.357       .  S
C1093      C1094   1.407       .  A
C1093      C1098   1.397       .  A
C1093      H1100   1.083       .  S
C1094      C1095   1.407       .  A
C1095      C1096   1.392       .  A
C1095      F1102   1.358       .  S
C1096      C1097   1.408       .  A
C1096      H1101   1.083       .  S
C1097      C1098   1.407       .  A
C1098      F1099   1.355       .  S
C1103      C1104   1.409       .  A
C1103      C1108   1.394       .  A
C1103      H1110   1.082       .  S
C1104      C1105   1.407       .  A
C1105      C1106   1.397       .  A
C1105      F1112   1.357       .  S
C1106      C1107   1.407       .  A
C1106      H1111   1.083       .  S
C1107      C1108   1.405       .  A
C1108      F1109   1.358   1_545  S
C1113      C1114   1.408       .  A
C1113      C1118   1.395       .  A
C1113      H1120   1.084       .  S
C1114      C1115   1.409       .  A
C1115      C1116   1.399       .  A
C1115      F1122   1.357       .  S
C1116      C1117   1.408       .  A
C1116      H1121   1.083       .  S
C1117      C1118   1.408       .  A
C1118      F1119   1.358       .  S
C1123      C1124   1.402       .  A
C1123      C1128   1.398   1_556  A
C1123      H1130   1.083       .  S
C1124      C1125   1.406   1_565  A
C1125      C1126   1.401       .  A
C1125      F1132   1.358       .  S
C1126      C1127   1.408   1_556  A
C1126      H1131   1.083       .  S
C1127      C1128   1.412   1_545  A
C1128      F1129   1.357       .  S
C1133      C1134   1.404       .  A
C1133      C1138   1.401   1_554  A
C1133      H1140   1.084       .  S
C1134      C1135   1.406       .  A
C1135      C1136   1.402       .  A
C1135      F1142   1.358       .  S
C1136      C1137   1.409       .  A
C1136      H1141   1.084       .  S
C1137      C1138   1.412   1_554  A
C1138      F1139   1.357       .  S
C1143      C1144   1.411       .  A
C1143      C1148   1.415       .  A
C1143      H1150   1.083       .  S
C1144      C1145   1.403       .  A
C1145      C1146   1.393       .  A
C1145      F1152   1.358       .  S
C1146      C1147   1.409       .  A
C1146      H1151   1.083       .  S
C1147      C1148   1.410       .  A
C1148      F1149   1.356       .  S
C1153      C1154   1.409       .  A
C1153      C1158   1.401       .  A
C1153      H1160   1.082       .  S
C1154      C1155   1.408       .  A
C1155      C1156   1.395       .  A
C1155      F1162   1.358       .  S
C1156      C1157   1.409       .  A
C1156      H1161   1.083       .  S
C1157      C1158   1.408       .  A
C1158      F1159   1.356       .  S
C1163      C1164   1.405       .  A
C1163      C1168   1.401       .  A
C1163      H1170   1.083       .  S
C1164      C1165   1.414       .  A
C1165      C1166   1.399       .  A
C1165      F1172   1.357       .  S
C1166      C1167   1.404       .  A
C1166      H1171   1.082       .  S
C1167      C1168   1.414       .  A
C1168      F1169   1.358       .  S
C1173      C1174   1.410       .  A
C1173      C1178   1.403       .  A
C1173      H1180   1.082       .  S
C1174      C1175   1.408       .  A
C1175      C1176   1.392       .  A
C1175      F1182   1.358       .  S
C1176      C1177   1.407       .  A
C1176      H1181   1.083       .  S
C1177      C1178   1.409       .  A
C1178      F1179   1.357       .  S
C1183      C1184   1.409       .  A
C1183      C1188   1.412       .  A
C1183      H1190   1.083       .  S
C1184      C1185   1.401       .  A
C1185      C1186   1.393       .  A
C1185      F1192   1.358       .  S
C1186      C1187   1.409       .  A
C1186      H1191   1.083       .  S
C1187      C1188   1.410       .  A
C1188      F1189   1.357       .  S
C1193      C1194   1.404       .  A
C1193      C1198   1.400       .  A
C1193      H1200   1.082       .  S
C1194      C1195   1.415       .  A
C1195      C1196   1.397       .  A
C1195      F1202   1.358       .  S
C1196      C1197   1.403       .  A
C1196      H1201   1.082       .  S
C1197      C1198   1.414       .  A
C1198      F1199   1.357       .  S
C1203      C1204   1.409       .  A
C1203      C1208   1.398       .  A
C1203      H1210   1.087       .  S
C1204      C1205   1.409       .  A
C1205      C1206   1.399       .  A
C1205      F1212   1.357       .  S
C1206      C1207   1.406       .  A
C1206      H1211   1.087       .  S
C1207      C1208   1.404       .  A
C1208      F1209   1.358       .  S
C1213      C1214   1.408       .  A
C1213      C1218   1.402       .  A
C1213      H1220   1.084       .  S
C1214      C1215   1.412       .  A
C1215      C1216   1.400       .  A
C1215      F1222   1.357       .  S
C1216      C1217   1.404       .  A
C1216      H1221   1.084       .  S
C1217      C1218   1.406       .  A
C1218      F1219   1.358       .  S
C1223      C1224   1.413   1_455  A
C1223      C1228   1.399       .  A
C1223      H1230   1.081       .  S
C1224      C1225   1.401       .  A
C1225      C1226   1.401       .  A
C1225      F1232   1.357       .  S
C1226      C1227   1.413   1_655  A
C1226      H1231   1.084       .  S
C1227      C1228   1.400       .  A
C1228      F1229   1.357       .  S
C1233      C1234   1.401       .  A
C1233      C1238   1.389       .  A
C1233      H1240   1.083       .  S
C1234      C1235   1.408       .  A
C1235      C1236   1.401       .  A
C1235      F1242   1.357       .  S
C1236      C1237   1.406       .  A
C1236      H1241   1.082       .  S
C1237      C1238   1.412       .  A
C1238      F1239   1.358       .  S
C1243      C1244   1.410       .  A
C1243      C1248   1.402       .  A
C1243      H1250   1.083       .  S
C1244      C1245   1.406       .  A
C1245      C1246   1.395       .  A
C1245      F1252   1.358       .  S
C1246      C1247   1.409       .  A
C1246      H1251   1.083       .  S
C1247      C1248   1.407       .  A
C1248      F1249   1.357       .  S
C1253      C1254   1.413       .  A
C1253      C1258   1.403       .  A
C1253      H1260   1.083       .  S
C1254      C1255   1.407       .  A
C1255      C1256   1.400       .  A
C1255      F1262   1.357       .  S
C1256      C1257   1.411       .  A
C1256      H1261   1.083       .  S
C1257      C1258   1.405       .  A
C1258      F1259   1.357       .  S
C1263      C1264   1.410       .  A
C1263      C1268   1.398       .  A
C1263      H1270   1.083       .  S
C1264      C1265   1.409       .  A
C1265      C1266   1.403       .  A
C1265      F1272   1.357       .  S
C1266      C1267   1.407       .  A
C1266      H1271   1.084       .  S
C1267      C1268   1.405       .  A
C1268      F1269   1.358       .  S
C1273      C1274   1.406       .  A
C1273      C1278   1.401       .  A
C1273      H1280   1.084       .  S
C1274      C1275   1.408       .  A
C1275      C1276   1.402       .  A
C1275      F1282   1.358       .  S
C1276      C1277   1.405       .  A
C1276      H1281   1.084       .  S
C1277      C1278   1.406       .  A
C1278      F1279   1.358       .  S
C1283      C1284   1.409       .  A
C1283      C1288   1.393   1_565  A
C1283      H1290   1.083       .  S
C1284      C1285   1.413       .  A
C1285      C1286   1.419   1_565  A
C1285      F1292   1.357       .  S
C1286      C1287   1.412       .  A
C1286      H1291   1.083       .  S
C1287      C1288   1.404       .  A
C1288      F1289   1.358       .  S
C1293      C1294   1.407       .  A
C1293      C1298   1.396       .  A
C1293      H1300   1.081       .  S
C1294      C1295   1.408       .  A
C1295      C1296   1.393       .  A
C1295      F1302   1.358   1_455  S
C1296      C1297   1.406       .  A
C1296      H1301   1.081       .  S
C1297      C1298   1.408       .  A
C1298      F1299   1.358       .  S
C1303      C1304   1.407       .  A
C1303      C1308   1.395       .  A
C1303      H1310   1.083       .  S
C1304      C1305   1.411       .  A
C1305      C1306   1.403       .  A
C1305      F1312   1.357       .  S
C1306      C1307   1.406       .  A
C1306      H1311   1.082       .  S
C1307      C1308   1.410       .  A
C1308      F1309   1.358   1_455  S
C1313      C1314   1.405       .  A
C1313      C1318   1.397       .  A
C1313      H1320   1.084       .  S
C1314      C1315   1.411       .  A
C1315      C1316   1.393       .  A
C1315      F1322   1.358       .  S
C1316      C1317   1.405       .  A
C1316      H1321   1.084       .  S
C1317      C1318   1.410       .  A
C1318      F1319   1.357       .  S
C1323      C1324   1.410       .  A
C1323      C1328   1.404       .  A
C1323      H1330   1.082       .  S
C1324      C1325   1.408       .  A
C1325      C1326   1.392       .  A
C1325      F1332   1.358       .  S
C1326      C1327   1.408       .  A
C1326      H1331   1.082       .  S
C1327      C1328   1.409       .  A
C1328      F1329   1.357       .  S
C1333      C1334   1.407       .  A
C1333      C1338   1.399       .  A
C1333      H1340   1.082       .  S
C1334      C1335   1.409       .  A
C1335      C1336   1.401       .  A
C1335      F1342   1.357       .  S
C1336      C1337   1.407       .  A
C1336      H1341   1.082       .  S
C1337      C1338   1.410       .  A
C1338      F1339   1.358       .  S
C1343      C1344   1.410       .  A
C1343      C1348   1.397       .  A
C1343      H1350   1.080       .  S
C1344      C1345   1.409       .  A
C1345      C1346   1.405       .  A
C1345      F1352   1.357       .  S
C1346      C1347   1.407       .  A
C1346      H1351   1.080       .  S
C1347      C1348   1.403       .  A
C1348      F1349   1.358       .  S
C1353      C1354   1.404       .  A
C1353      C1358   1.399       .  A
C1353      H1360   1.084       .  S
C1354      C1355   1.405       .  A
C1355      C1356   1.400       .  A
C1355      F1362   1.357       .  S
C1356      C1357   1.407       .  A
C1356      H1361   1.083       .  S
C1357      C1358   1.408       .  A
C1358      F1359   1.358       .  S
C1363      C1364   1.406       .  A
C1363      C1368   1.390       .  A
C1363      H1370   1.083       .  S
C1364      C1365   1.413       .  A
C1365      C1366   1.415       .  A
C1365      F1372   1.356       .  S
C1366      C1367   1.409       .  A
C1366      H1371   1.083       .  S
C1367      C1368   1.407       .  A
C1368      F1369   1.359       .  S
C1373      C1374   1.408       .  A
C1373      C1378   1.402       .  A
C1373      H1380   1.084       .  S
C1374      C1375   1.414       .  A
C1375      C1376   1.400       .  A
C1375      F1382   1.358       .  S
C1376      C1377   1.403       .  A
C1376      H1381   1.084       .  S
C1377      C1378   1.406       .  A
C1378      F1379   1.357       .  S
C1383      C1384   1.405       .  A
C1383      C1388   1.401       .  A
C1383      H1390   1.084       .  S
C1384      C1385   1.407       .  A
C1385      C1386   1.401       .  A
C1385      F1392   1.358       .  S
C1386      C1387   1.405       .  A
C1386      H1391   1.083       .  S
C1387      C1388   1.409       .  A
C1388      F1389   1.358       .  S
C1393      C1394   1.410       .  A
C1393      C1398   1.404   1_455  A
C1393      H1400   1.083       .  S
C1394      C1395   1.409       .  A
C1395      C1396   1.399   1_455  A
C1395      F1402   1.357       .  S
C1396      C1397   1.409       .  A
C1396      H1401   1.083       .  S
C1397      C1398   1.410       .  A
C1398      F1399   1.357       .  S
C1403      C1404   1.409       .  A
C1403      C1408   1.404       .  A
C1403      H1410   1.083       .  S
C1404      C1405   1.412       .  A
C1405      C1406   1.400       .  A
C1405      F1412   1.358       .  S
C1406      C1407   1.405       .  A
C1406      H1411   1.084       .  S
C1407      C1408   1.406       .  A
C1408      F1409   1.357       .  S
C1413      C1414   1.405       .  A
C1413      C1418   1.402       .  A
C1413      H1420   1.083       .  S
C1414      C1415   1.403       .  A
C1415      C1416   1.398       .  A
C1415      F1422   1.358       .  S
C1416      C1417   1.410       .  A
C1416      H1421   1.083       .  S
C1417      C1418   1.409       .  A
C1418      F1419   1.357       .  S
C1423      C1424   1.409       .  A
C1423      C1428   1.413       .  A
C1423      H1430   1.084       .  S
C1424      C1425   1.401       .  A
C1425      C1426   1.394       .  A
C1425      F1432   1.358       .  S
C1426      C1427   1.409       .  A
C1426      H1431   1.084       .  S
C1427      C1428   1.410       .  A
C1428      F1429   1.357       .  S
C1433      C1434   1.410       .  A
C1433      C1438   1.403       .  A
C1433      H1440   1.083       .  S
C1434      C1435   1.408       .  A
C1435      C1436   1.393       .  A
C1435      F1442   1.358       .  S
C1436      C1437   1.407       .  A
C1436      H1441   1.083       .  S
C1437      C1438   1.410       .  A
C1438      F1439   1.357       .  S
C1443      C1444   1.404       .  A
C1443      C1448   1.402       .  A
C1443      H1450   1.086       .  S
C1444      C1445   1.405       .  A
C1445      C1446   1.400       .  A
C1445      F1452   1.358       .  S
C1446      C1447   1.408       .  A
C1446      H1451   1.085       .  S
C1447      C1448   1.411       .  A
C1448      F1449   1.357       .  S
C1453      C1454   1.409       .  A
C1453      C1458   1.399       .  A
C1453      H1460   1.085       .  S
C1454      C1455   1.409       .  A
C1455      C1456   1.401       .  A
C1455      F1462   1.357       .  S
C1456      C1457   1.407       .  A
C1456      H1461   1.085       .  S
C1457      C1458   1.406       .  A
C1458      F1459   1.358       .  S
C1463      C1464   1.404       .  A
C1463      C1468   1.398       .  A
C1463      H1470   1.083       .  S
C1464      C1465   1.414       .  A
C1465      C1466   1.402       .  A
C1465      F1472   1.357       .  S
C1466      C1467   1.402       .  A
C1466      H1471   1.083       .  S
C1467      C1468   1.411       .  A
C1468      F1469   1.358       .  S
C1473      C1474   1.405       .  A
C1473      C1478   1.386       .  A
C1473      H1480   1.083       .  S
C1474      C1475   1.407       .  A
C1475      C1476   1.402       .  A
C1475      F1482   1.357       .  S
C1476      C1477   1.409       .  A
C1476      H1481   1.083       .  S
C1477      C1478   1.408       .  A
C1478      F1479   1.358       .  S
C1483      C1484   1.406       .  A
C1483      C1488   1.403       .  A
C1483      H1490   1.084       .  S
C1484      C1485   1.408       .  A
C1485      C1486   1.401       .  A
C1485      F1492   1.358       .  S
C1486      C1487   1.405       .  A
C1486      H1491   1.084       .  S
C1487      C1488   1.407       .  A
C1488      F1489   1.357       .  S
C1493      C1494   1.403       .  A
C1493      C1498   1.400       .  A
C1493      H1500   1.084       .  S
C1494      C1495   1.409       .  A
C1495      C1496   1.400       .  A
C1495      F1502   1.357       .  S
C1496      C1497   1.406       .  A
C1496      H1501   1.084       .  S
C1497      C1498   1.413       .  A
C1498      F1499   1.357       .  S
C1503      C1504   1.404       .  A
C1503      C1508   1.400       .  A
C1503      H1510   1.086       .  S
C1504      C1505   1.411       .  A
C1505      C1506   1.394       .  A
C1505      F1512   1.358       .  S
C1506      C1507   1.402       .  A
C1506      H1511   1.085       .  S
C1507      C1508   1.407       .  A
C1508      F1509   1.355       .  S
C1513      C1514   1.404       .  A
C1513      C1518   1.398       .  A
C1513      H1520   1.081       .  S
C1514      C1515   1.411       .  A
C1515      C1516   1.396       .  A
C1515      F1522   1.358       .  S
C1516      C1517   1.406       .  A
C1516      H1521   1.083       .  S
C1517      C1518   1.412       .  A
C1518      F1519   1.357       .  S
C1523      C1524   1.404       .  A
C1523      C1528   1.398       .  A
C1523      H1530   1.084       .  S
C1524      C1525   1.409       .  A
C1525      C1526   1.401       .  A
C1525      F1532   1.357       .  S
C1526      C1527   1.406       .  A
C1526      H1531   1.083       .  S
C1527      C1528   1.413       .  A
C1528      F1529   1.358       .  S
C1533      C1534   1.406       .  A
C1533      C1538   1.401       .  A
C1533      H1540   1.084       .  S
C1534      C1535   1.409       .  A
C1535      C1536   1.403       .  A
C1535      F1542   1.357       .  S
C1536      C1537   1.405       .  A
C1536      H1541   1.084       .  S
C1537      C1538   1.407       .  A
C1538      F1539   1.358       .  S
C1543      C1544   1.397       .  A
C1543      C1548   1.396       .  A
C1543      H1550   1.084       .  S
C1544      C1545   1.410       .  A
C1545      C1546   1.409       .  A
C1545      F1552   1.357       .  S
C1546      C1547   1.406       .  A
C1546      H1551   1.083       .  S
C1547      C1548   1.416       .  A
C1548      F1549   1.358       .  S
C1553      C1554   1.408       .  A
C1553      C1558   1.393       .  A
C1553      H1560   1.081       .  S
C1554      C1555   1.411       .  A
C1555      C1556   1.405       .  A
C1555      F1562   1.357       .  S
C1556      C1557   1.407       .  A
C1556      H1561   1.081       .  S
C1557      C1558   1.404       .  A
C1558      F1559   1.358       .  S
C1563      C1564   1.408       .  A
C1563      C1568   1.392       .  A
C1563      H1570   1.082       .  S
C1564      C1565   1.409       .  A
C1565      C1566   1.400       .  A
C1565      F1572   1.357       .  S
C1566      C1567   1.404       .  A
C1566      H1571   1.083       .  S
C1567      C1568   1.403       .  A
C1568      F1569   1.359       .  S
C1573      C1574   1.411       .  A
C1573      C1578   1.401   1_565  A
C1573      H1580   1.083       .  S
C1574      C1575   1.406       .  A
C1575      C1576   1.402   1_565  A
C1575      F1582   1.357       .  S
C1576      C1577   1.410       .  A
C1576      H1581   1.083       .  S
C1577      C1578   1.405       .  A
C1578      F1579   1.357       .  S
C1583      C1584   1.406       .  A
C1583      C1588   1.400       .  A
C1583      H1590   1.084       .  S
C1584      C1585   1.411       .  A
C1585      C1586   1.399       .  A
C1585      F1592   1.357       .  S
C1586      C1587   1.403       .  A
C1586      H1591   1.084       .  S
C1587      C1588   1.408       .  A
C1588      F1589   1.358       .  S
C1593      C1594   1.406       .  A
C1593      C1598   1.401       .  A
C1593      H1600   1.086       .  S
C1594      C1595   1.409       .  A
C1595      C1596   1.401       .  A
C1595      F1602   1.358       .  S
C1596      C1597   1.404       .  A
C1596      H1601   1.087       .  S
C1597      C1598   1.407       .  A
C1598      F1599   1.357       .  S
C1603      C1604   1.415       .  A
C1603      C1608   1.402       .  A
C1603      H1610   1.078       .  S
C1604      C1605   1.400       .  A
C1605      C1606   1.403       .  A
C1605      F1612   1.357       .  S
C1606      C1607   1.415       .  A
C1606      H1611   1.081       .  S
C1607      C1608   1.401       .  A
C1608      F1609   1.357       .  S
C1613      C1614   1.407   1_655  A
C1613      C1618   1.400       .  A
C1613      H1620   1.087       .  S
C1614      C1615   1.408       .  A
C1615      C1616   1.401   1_455  A
C1615      F1622   1.357       .  S
C1616      C1617   1.405       .  A
C1616      H1621   1.086   1_655  S
C1617      C1618   1.407       .  A
C1618      F1619   1.358       .  S
C1623      C1624   1.405       .  A
C1623      C1628   1.401       .  A
C1623      H1630   1.084       .  S
C1624      C1625   1.407       .  A
C1625      C1626   1.400       .  A
C1625      F1632   1.358       .  S
C1626      C1627   1.404       .  A
C1626      H1631   1.084       .  S
C1627      C1628   1.409       .  A
C1628      F1629   1.358       .  S
C1633      C1634   1.409       .  A
C1633      C1638   1.392       .  A
C1633      H1640   1.084       .  S
C1634      C1635   1.409       .  A
C1635      C1636   1.414       .  A
C1635      F1642   1.356       .  S
C1636      C1637   1.411       .  A
C1636      H1641   1.084       .  S
C1637      C1638   1.401       .  A
C1638      F1639   1.358       .  S
C1643      C1644   1.407       .  A
C1643      C1648   1.396       .  A
C1643      H1650   1.083       .  S
C1644      C1645   1.408       .  A
C1645      C1646   1.408       .  A
C1645      F1652   1.357       .  S
C1646      C1647   1.412       .  A
C1646      H1651   1.082       .  S
C1647      C1648   1.409       .  A
C1648      F1649   1.358       .  S
C1653      C1654   1.407       .  A
C1653      C1658   1.402       .  A
C1653      H1660   1.084       .  S
C1654      C1655   1.414       .  A
C1655      C1656   1.399       .  A
C1655      F1662   1.358       .  S
C1656      C1657   1.402       .  A
C1656      H1661   1.084       .  S
C1657      C1658   1.407       .  A
C1658      F1659   1.357       .  S
C1663      C1664   1.405       .  A
C1663      C1668   1.400       .  A
C1663      H1670   1.087       .  S
C1664      C1665   1.406       .  A
C1665      C1666   1.397       .  A
C1665      F1672   1.358       .  S
C1666      C1667   1.408       .  A
C1666      H1671   1.086       .  S
C1667      C1668   1.409       .  A
C1668      F1669   1.357       .  S
C1673      C1674   1.410       .  A
C1673      C1678   1.397   1_655  A
C1673      H1680   1.083       .  S
C1674      C1675   1.409       .  A
C1675      C1676   1.413       .  A
C1675      F1682   1.357       .  S
C1676      C1677   1.410   1_655  A
C1676      H1681   1.083       .  S
C1677      C1678   1.401       .  A
C1678      F1679   1.358       .  S
C1683      C1684   1.407       .  A
C1683      C1688   1.401       .  A
C1683      H1690   1.081       .  S
C1684      C1685   1.408       .  A
C1685      C1686   1.398       .  A
C1685      F1692   1.358   1_545  S
C1686      C1687   1.410       .  A
C1686      H1691   1.081       .  S
C1687      C1688   1.409       .  A
C1688      F1689   1.357       .  S
C1693      C1694   1.401       .  A
C1693      C1698   1.399       .  A
C1693      H1700   1.083       .  S
C1694      C1695   1.406   1_565  A
C1695      C1696   1.400       .  A
C1695      F1702   1.358       .  S
C1696      C1697   1.407       .  A
C1696      H1701   1.083       .  S
C1697      C1698   1.412   1_545  A
C1698      F1699   1.357       .  S
C1703      C1704   1.403       .  A
C1703      C1708   1.401       .  A
C1703      H1710   1.084       .  S
C1704      C1705   1.406   1_655  A
C1705      C1706   1.404       .  A
C1705      F1712   1.358       .  S
C1706      C1707   1.409       .  A
C1706      H1711   1.084       .  S
C1707      C1708   1.413   1_455  A
C1708      F1709   1.357       .  S
C1713      C1714   1.416       .  A
C1713      C1718   1.405       .  A
C1713      H1720   1.082       .  S
C1714      C1715   1.404       .  A
C1715      C1716   1.407       .  A
C1715      F1722   1.357       .  S
C1716      C1717   1.413       .  A
C1716      H1721   1.079       .  S
C1717      C1718   1.402       .  A
C1718      F1719   1.357       .  S
C1723      C1724   1.407       .  A
C1723      C1728   1.404       .  A
C1723      H1730   1.083       .  S
C1724      C1725   1.404       .  A
C1725      C1726   1.396       .  A
C1725      F1732   1.358       .  S
C1726      C1727   1.410       .  A
C1726      H1731   1.083       .  S
C1727      C1728   1.409       .  A
C1728      F1729   1.357       .  S
C1733      C1734   1.406       .  A
C1733      C1738   1.409       .  A
C1733      H1740   1.081       .  S
C1734      C1735   1.413       .  A
C1735      C1736   1.406       .  A
C1735      F1742   1.357       .  S
C1736      C1737   1.407       .  A
C1736      H1741   1.081       .  S
C1737      C1738   1.416       .  A
C1738      F1739   1.357       .  S
C1743      C1744   1.405       .  A
C1743      C1748   1.402       .  A
C1743      H1750   1.083       .  S
C1744      C1745   1.407       .  A
C1745      C1746   1.401       .  A
C1745      F1752   1.358       .  S
C1746      C1747   1.407       .  A
C1746      H1751   1.083       .  S
C1747      C1748   1.410       .  A
C1748      F1749   1.357       .  S
C1753      C1754   1.406       .  A
C1753      C1758   1.403       .  A
C1753      H1760   1.082       .  S
C1754      C1755   1.407       .  A
C1755      C1756   1.399       .  A
C1755      F1762   1.358       .  S
C1756      C1757   1.405       .  A
C1756      H1761   1.083       .  S
C1757      C1758   1.406       .  A
C1758      F1759   1.357       .  S
C1763      C1764   1.409   1_545  A
C1763      C1768   1.392       .  A
C1763      H1770   1.084   1_545  S
C1764      C1765   1.412       .  A
C1765      C1766   1.417   1_565  A
C1765      F1772   1.357       .  S
C1766      C1767   1.412       .  A
C1766      H1771   1.084       .  S
C1767      C1768   1.403       .  A
C1768      F1769   1.358       .  S
C1773      C1774   1.406       .  A
C1773      C1778   1.403       .  A
C1773      H1780   1.082       .  S
C1774      C1775   1.402       .  A
C1775      C1776   1.389       .  A
C1775      F1782   1.359       .  S
C1776      C1777   1.408       .  A
C1776      H1781   1.082       .  S
C1777      C1778   1.410       .  A
C1778      F1779   1.357       .  S
C1783      C1784   1.410       .  A
C1783      C1788   1.399       .  A
C1783      H1790   1.080       .  S
C1784      C1785   1.408       .  A
C1785      C1786   1.395       .  A
C1785      F1792   1.358       .  S
C1786      C1787   1.408       .  A
C1786      H1791   1.081       .  S
C1787      C1788   1.406       .  A
C1788      F1789   1.357       .  S
C1793      C1794   1.408   1_545  A
C1793      C1798   1.399       .  A
C1793      H1800   1.087       .  S
C1794      C1795   1.410       .  A
C1795      C1796   1.400       .  A
C1795      F1802   1.358       .  S
C1796      C1797   1.406   1_565  A
C1796      H1801   1.088       .  S
C1797      C1798   1.405       .  A
C1798      F1799   1.357       .  S
C1803      C1804   1.403       .  A
C1803      C1808   1.400       .  A
C1803      H1810   1.084       .  S
C1804      C1805   1.406       .  A
C1805      C1806   1.403       .  A
C1805      F1812   1.358       .  S
C1806      C1807   1.408       .  A
C1806      H1811   1.083       .  S
C1807      C1808   1.412       .  A
C1808      F1809   1.358       .  S
C1813      C1814   1.394       .  A
C1813      C1818   1.395       .  A
C1813      H1820   1.084       .  S
C1814      C1815   1.410       .  A
C1815      C1816   1.406       .  A
C1815      F1822   1.357       .  S
C1816      C1817   1.406       .  A
C1816      H1821   1.083       .  S
C1817      C1818   1.420       .  A
C1818      F1819   1.357       .  S
C1823      C1824   1.407       .  A
C1823      C1828   1.398       .  A
C1823      H1830   1.083       .  S
C1824      C1825   1.408       .  A
C1825      C1826   1.404       .  A
C1825      F1832   1.357       .  S
C1826      C1827   1.410       .  A
C1826      H1831   1.083       .  S
C1827      C1828   1.409       .  A
C1828      F1829   1.357       .  S
C1833      C1834   1.410       .  A
C1833      C1838   1.407       .  A
C1833      H1840   1.080       .  S
C1834      C1835   1.413       .  A
C1835      C1836   1.395       .  A
C1835      F1842   1.358       .  S
C1836      C1837   1.402       .  A
C1836      H1841   1.081       .  S
C1837      C1838   1.405       .  A
C1838      F1839   1.357       .  S
C1843      C1844   1.405       .  A
C1843      C1848   1.398       .  A
C1843      H1850   1.084       .  S
C1844      C1845   1.408       .  A
C1845      C1846   1.392       .  A
C1845      F1852   1.358       .  S
C1846      C1847   1.406       .  A
C1846      H1851   1.084       .  S
C1847      C1848   1.410       .  A
C1848      F1849   1.357       .  S
C1853      C1854   1.406       .  A
C1853      C1858   1.398       .  A
C1853      H1860   1.086       .  S
C1854      C1855   1.403       .  A
C1855      C1856   1.398       .  A
C1855      F1862   1.357       .  S
C1856      C1857   1.409       .  A
C1856      H1861   1.086       .  S
C1857      C1858   1.409       .  A
C1858      F1859   1.358       .  S
C1863      C1864   1.406       .  A
C1863      C1868   1.399       .  A
C1863      H1870   1.084       .  S
C1864      C1865   1.409       .  A
C1865      C1866   1.401       .  A
C1865      F1872   1.357       .  S
C1866      C1867   1.403       .  A
C1866      H1871   1.083       .  S
C1867      C1868   1.406       .  A
C1868      F1869   1.358       .  S
