geometry optimzed in LAMMPS
_audit_creation_date              2020-12-01 
_audit_creation_method            'lammps2cif' 
_symmetry_space_group_name_H-M    'P1' 
_symmetry_Int_Tables_number       1 
_symmetry_cell_setting            triclinic 
loop_ 
_symmetry_equiv_pos_as_xyz 
  x,y,z 
_cell_length_a                    51.58909869 
_cell_length_b                    51.639178776149826 
_cell_length_c                    32.5754541581633 
_cell_angle_alpha                 90.15759438947559 
_cell_angle_beta                  90.18324710864246 
_cell_angle_gamma                 89.86327115951228 
loop_ 
_atom_site_label 
_atom_site_type_symbol 
_atom_site_fract_x 
_atom_site_fract_y 
_atom_site_fract_z 
_atom_site_charge 
Zn1        Zn  0.54087604  0.06823545  0.69953587     1.49700
Zn2        Zn  0.55094396  0.12694262  0.72295887     1.49400
Zn3        Zn  0.59875066  0.09203862  0.70120097     1.49100
Zn4        Zn  0.55801496  0.10893975  0.62974665     1.49500
O5          O  0.56213144  0.09883230  0.68790859    -1.82100
O6          O  0.51290468  0.07540019  0.74305788    -0.72700
O7          O  0.57959892  0.14126617  0.75770258    -0.72600
O8          O  0.60390943  0.05589875  0.72173830    -0.72100
O9          O  0.52253601  0.11585092  0.76029642    -0.72800
O10         O  0.56376860  0.04029689  0.72260065    -0.72400
O11         O  0.61305979  0.11536399  0.74590311    -0.72900
O12         O  0.59366146  0.11312273  0.60378014    -0.72300
O13         O  0.53725182  0.15607108  0.68989779    -0.73100
O14         O  0.62070082  0.09834321  0.65168723    -0.72500
O15         O  0.53957322  0.14408082  0.62468734    -0.72900
O16         O  0.53804450  0.08087116  0.59788262    -0.72800
O17         O  0.52526981  0.05385444  0.64668113    -0.72600
C18         C  0.50893252  0.09557601  0.76492924     0.79200
C19         C  0.60294179  0.13456127  0.76439704     0.79600
C20         C  0.58794945  0.03787753  0.72966102     0.78600
C21         C  0.61653792  0.10767083  0.61610610     0.79000
C22         C  0.53340797  0.16070313  0.65210132     0.80100
C23         C  0.52627822  0.06025284  0.60886362     0.79200
Zn24       Zn  0.40321227  0.92379377  0.34350053     1.49700
Zn25       Zn  0.45710657  0.89332638  0.33053828     1.49400
Zn26       Zn  0.40215484  0.86533781  0.31230601     1.49100
Zn27       Zn  0.42111231  0.90896509  0.25240520     1.49500
O28         O  0.42120109  0.89786185  0.30989027    -1.82100
O29         O  0.42719865  0.93921553  0.38575314    -0.72700
O30         O  0.46165512  0.85629186  0.35329471    -0.72600
O31         O  0.37047048  0.86896733  0.34711472    -0.72100
O32         O  0.46548000  0.92067953  0.37562293    -0.72800
O33         O  0.37151265  0.90909165  0.37149932    -0.72400
O34         O  0.42442352  0.83741002  0.33672414    -0.72900
O35         O  0.40110212  0.88487776  0.21470522    -0.72300
O36         O  0.48265186  0.89680303  0.28230479    -0.73100
O37         O  0.38977735  0.85319903  0.25651616    -0.72500
O38         O  0.45724902  0.90870334  0.23056959    -0.72900
O39         O  0.40570659  0.94450459  0.24646096    -0.72800
O40         O  0.39128022  0.95374359  0.30890415    -0.72600
C41         C  0.45121394  0.93715878  0.39448928     0.79200
C42         C  0.44717501  0.83620241  0.35188821     0.79600
C43         C  0.36067619  0.88701090  0.36877685     0.78600
C44         C  0.39031246  0.86309764  0.22077403     0.79000
C45         C  0.47954454  0.90277041  0.24450571     0.80100
C46         C  0.39408053  0.95963342  0.27127854     0.79200
Zn47       Zn  0.60639457  0.83337560  0.93962525     1.49700
Zn48       Zn  0.63415636  0.77896764  0.91921495     1.49400
Zn49       Zn  0.66539214  0.83236707  0.91205940     1.49100
Zn50       Zn  0.64893643  0.81183016  0.00011547     1.49500
O51         O  0.63872670  0.81394150  0.94255213    -1.82100
O52         O  0.57757778  0.81035058  0.91989774    -0.72700
O53         O  0.65980773  0.77227242  0.87254871    -0.72600
O54         O  0.65130986  0.86481258  0.88627546    -0.72100
O55         O  0.59696151  0.77406317  0.89947411    -0.72800
O56         O  0.60960912  0.86368939  0.90197977    -0.72400
O57         O  0.68032178  0.80986014  0.86749555    -0.72900
O58         O  0.68507550  0.82482735  0.00868308    -0.72300
O59         O  0.63923789  0.75169290  0.96345168    -0.73100
O60         O  0.69509075  0.84239544  0.94871689    -0.72500
O61         O  0.64745642  0.77525774  0.01900182    -0.72900
O62         O  0.62560021  0.83278891  0.03735651    -0.72800
O63         O  0.59616782  0.84853731  0.99438625    -0.72600
C64         C  0.57653072  0.78771884  0.90430873     0.79200
C65         C  0.67682926  0.78661365  0.85560006     0.79600
C66         C  0.62865277  0.87455060  0.88436721     0.78600
C67         C  0.70062469  0.83731334  0.98592028     0.79000
C68         C  0.64359694  0.75342774  0.00191911     0.80100
C69         C  0.60553027  0.84648277  0.03040777     0.79200
Zn70       Zn  0.83833664  0.71997153  0.57030368     1.49700
Zn71       Zn  0.86643675  0.66411168  0.55816885     1.49400
Zn72       Zn  0.80737870  0.66596471  0.58454806     1.49100
Zn73       Zn  0.82493668  0.68247307  0.49498769     1.49500
O74         O  0.83425240  0.68344618  0.55254461    -1.82100
O75         O  0.87506423  0.72525070  0.59228565    -0.72700
O76         O  0.86249690  0.63461416  0.59704265    -0.72600
O77         O  0.79142107  0.69112670  0.62412767    -0.72100
O78         O  0.89375409  0.68724382  0.58042110    -0.72800
O79         O  0.81165113  0.72872255  0.61522220    -0.72400
O80         O  0.82137193  0.63523625  0.61644656    -0.72900
O81         O  0.79000809  0.66775314  0.48687022    -0.72300
O82         O  0.87997677  0.64975481  0.50452017    -0.73100
O83         O  0.77838176  0.65338689  0.54818376    -0.72500
O84         O  0.84955811  0.66171401  0.46068819    -0.72900
O85         O  0.82584552  0.71753735  0.47071849    -0.72800
O86         O  0.83495259  0.74500591  0.52104319    -0.72600
C87         C  0.89504726  0.71059635  0.59266627     0.79200
C88         C  0.84397414  0.62528899  0.61794163     0.79600
C89         C  0.79441838  0.71497160  0.63301039     0.78600
C90         C  0.77393346  0.65638549  0.51002743     0.79000
C91         C  0.87096299  0.65046541  0.46814406     0.80100
C92         C  0.83072743  0.74035603  0.48304574     0.79200
Zn93       Zn  0.05929680  0.09574303  0.75061015     1.49700
Zn94       Zn  0.07563349  0.07725088  0.84004771     1.49400
Zn95       Zn  0.07751810  0.13723218  0.81569478     1.49100
Zn96       Zn  0.02250336  0.10934345  0.82740921     1.49500
O97         O  0.05855298  0.10484141  0.80871516    -1.82100
O98         O  0.07222623  0.05957589  0.74202640    -0.72700
O99         O  0.10792186  0.09054609  0.86864407    -0.72600
O100        O  0.09317306  0.14998978  0.76259136    -0.72100
O101        O  0.08526525  0.04674837  0.80350497    -0.72800
O102        O  0.08208219  0.11972206  0.71774459    -0.72400
O103        O  0.10683307  0.13264064  0.85492170    -0.72900
O104        O  0.01661251  0.14611208  0.84824367    -0.72300
O105        O  0.05141796  0.06346940  0.88323217    -0.73100
O106        O  0.05457694  0.16525406  0.83783459    -0.72500
O107        O  0.01362136  0.08316387  0.87228454    -0.72900
O108        O  0.99759971  0.10564078  0.77951359    -0.72800
O109        O  0.02364420  0.09797241  0.72660488    -0.72600
C110        C  0.08218653  0.04244316  0.76524330     0.79200
C111        C  0.11722442  0.11327263  0.87254294     0.79600
C112        C  0.09377235  0.14074483  0.72633283     0.78600
C113        C  0.03103464  0.16614493  0.84923236     0.79000
C114        C  0.02753967  0.06675007  0.89175293     0.80100
C115        C  0.00114666  0.10200404  0.74121645     0.79200
Zn116      Zn  0.96082655  0.90073365  0.16557208     1.49700
Zn117      Zn  0.92299704  0.91094074  0.24271109     1.49400
Zn118      Zn  0.90606224  0.92886720  0.15297826     1.49100
Zn119      Zn  0.90782438  0.86881482  0.17671344     1.49500
O120        O  0.92458031  0.90234531  0.18434953    -1.82100
O121        O  0.98526449  0.90573542  0.21406118    -0.72700
O122        O  0.90627965  0.94547323  0.25169546    -0.72600
O123        O  0.92955789  0.94588397  0.11203300    -0.72100
O124        O  0.95870778  0.91214022  0.26658196    -0.72800
O125        O  0.96831862  0.92830642  0.12229939    -0.72400
O126        O  0.89362383  0.95765839  0.18946693    -0.72900
O127        O  0.87849429  0.87180360  0.13686451    -0.72300
O128        O  0.90273514  0.88484514  0.27553630    -0.73100
O129        O  0.87512548  0.91388781  0.12341591    -0.72500
O130        O  0.89248826  0.85480055  0.22964403    -0.72900
O131        O  0.93283759  0.84289643  0.15334947    -0.72800
O132        O  0.96874961  0.86517044  0.14145770    -0.72600
C133        C  0.98150330  0.90963241  0.25228674     0.79200
C134        C  0.89543408  0.96172283  0.22788516     0.79600
C135        C  0.95365865  0.94456509  0.10397030     0.78600
C136        C  0.86718781  0.89069410  0.11932999     0.79000
C137        C  0.89185967  0.86351466  0.26627570     0.80100
C138        C  0.95595632  0.84406155  0.13990218     0.79200
Zn139      Zn  0.14029716  0.85164378  0.54074484     1.49700
Zn140      Zn  0.12266306  0.81458894  0.61647393     1.49400
Zn141      Zn  0.10714183  0.80219032  0.52320095     1.49100
Zn142      Zn  0.16446310  0.79433314  0.54931717     1.49500
O143        O  0.13381858  0.81588062  0.55822654    -1.82100
O144        O  0.13429460  0.87598148  0.58808496    -0.72700
O145        O  0.08696975  0.79647550  0.62190493    -0.72600
O146        O  0.09522833  0.82689599  0.48057886    -0.72100
O147        O  0.11973659  0.85147207  0.63902294    -0.72800
O148        O  0.11665269  0.86294002  0.49378123    -0.72400
O149        O  0.07708785  0.79301083  0.55587013    -0.72900
O150        O  0.15792966  0.76238183  0.51356386    -0.72300
O151        O  0.15049754  0.79592323  0.65091460    -0.73100
O152        O  0.11707564  0.76922647  0.49556767    -0.72500
O153        O  0.17863508  0.78291428  0.60363877    -0.72900
O154        O  0.19220776  0.81540194  0.52264123    -0.72800
O155        O  0.17705820  0.85558225  0.52053973    -0.72600
C156        C  0.12567914  0.87363755  0.62451567     0.79200
C157        C  0.07129550  0.78985198  0.59325558     0.79600
C158        C  0.10003155  0.85043536  0.47263108     0.78600
C159        C  0.13748916  0.75549077  0.49446378     0.79000
C160        C  0.17175310  0.78475054  0.64104796     0.80100
C161        C  0.19511116  0.83923340  0.51390115     0.79200
Zn162      Zn  0.34426323  0.71643434  0.91151595     1.49700
Zn163      Zn  0.37252904  0.66078278  0.92135633     1.49400
Zn164      Zn  0.33173815  0.67823103  0.98701616     1.49100
Zn165      Zn  0.31318471  0.66322283  0.89635875     1.49500
O166        O  0.34036270  0.67992698  0.92883790    -1.82100
O167        O  0.38067582  0.72177288  0.88834582    -0.72700
O168        O  0.38608091  0.64532469  0.97397165    -0.72600
O169        O  0.33589144  0.71325919  0.01284515    -0.72100
O170        O  0.40002898  0.68402920  0.89965226    -0.72800
O171        O  0.34274502  0.74062069  0.96153982    -0.72400
O172        O  0.35541740  0.65456448  0.01890612    -0.72900
O173        O  0.28315439  0.65336432  0.93222925    -0.72300
O174        O  0.36773909  0.63090253  0.88300376    -0.73100
O175        O  0.29553253  0.66536028  0.99499853    -0.72500
O176        O  0.32606145  0.63089319  0.86653999    -0.72900
O177        O  0.29807048  0.68836101  0.85617798    -0.72800
O178        O  0.31618148  0.72648266  0.86889376    -0.72600
C179        C  0.40093023  0.70746877  0.88785142     0.79200
C180        C  0.37685281  0.64375216  0.01002314     0.79600
C181        C  0.34046946  0.73602437  0.99986715     0.78600
C182        C  0.27885933  0.65578553  0.97046950     0.79000
C183        C  0.34856062  0.62067749  0.86452245     0.80100
C184        C  0.29967170  0.71257753  0.84944702     0.79200
Zn185      Zn  0.14574517  0.35268107  0.44931079     1.49700
Zn186      Zn  0.16920436  0.29485190  0.44057939     1.49400
Zn187      Zn  0.11064314  0.30403573  0.46388705     1.49100
Zn188      Zn  0.12927497  0.31630586  0.37176118     1.49500
O189        O  0.13882804  0.31705550  0.43083543    -1.82100
O190        O  0.18340387  0.35676822  0.46485119    -0.72700
O191        O  0.16239306  0.26519569  0.48096549    -0.72600
O192        O  0.09725959  0.33005505  0.50463236    -0.72100
O193        O  0.19840486  0.31639180  0.46239509    -0.72800
O194        O  0.12390664  0.36334961  0.49872714    -0.72400
O195        O  0.12112417  0.27272865  0.49565989    -0.72900
O196        O  0.09384636  0.29818700  0.36354646    -0.72300
O197        O  0.18307869  0.28107315  0.38706151    -0.73100
O198        O  0.08163247  0.29280577  0.42832914    -0.72500
O199        O  0.15798624  0.29789460  0.33849063    -0.72900
O200        O  0.12580912  0.35342173  0.35033508    -0.72800
O201        O  0.13721179  0.37775238  0.40378443    -0.72600
C202        C  0.20174678  0.34043261  0.46923655     0.79200
C203        C  0.14164891  0.25934982  0.49999410     0.79600
C204        C  0.10472320  0.35240508  0.51603772     0.78600
C205        C  0.07733316  0.29051750  0.39007064     0.79000
C206        C  0.17795996  0.28477387  0.34923185     0.80100
C207        C  0.12942698  0.37563628  0.36674219     0.79200
Zn208      Zn  0.37805192  0.16149209  0.07527822     1.49700
Zn209      Zn  0.34901952  0.21758763  0.07414980     1.49400
Zn210      Zn  0.33994825  0.17447650  0.00293994     1.49100
Zn211      Zn  0.31716597  0.16536485  0.09106666     1.49500
O212        O  0.34617983  0.18010471  0.06115466    -1.82100
O213        O  0.40496694  0.18644527  0.09496453    -0.72700
O214        O  0.34569825  0.23876134  0.02078468    -0.72600
O215        O  0.36535600  0.14966862  0.97709577    -0.72100
O216        O  0.38561737  0.22487231  0.09592148    -0.72800
O217        O  0.39367976  0.14195080  0.02665212    -0.72400
O218        O  0.34375061  0.20775630  0.97336844    -0.72900
O219        O  0.28796353  0.15446733  0.05355296    -0.72300
O220        O  0.32185726  0.22899217  0.11793010    -0.73100
O221        O  0.30396055  0.16180842  0.99180233    -0.72500
O222        O  0.30229110  0.19156728  0.12935305    -0.72900
O223        O  0.32839259  0.13511247  0.12549911    -0.72800
O224        O  0.37130808  0.13559152  0.11978688    -0.72600
C225        C  0.40571940  0.21074928  0.10139557     0.79200
C226        C  0.34535677  0.23153802  0.98317609     0.79600
C227        C  0.38615362  0.13896771  0.98963659     0.78600
C228        C  0.28541886  0.15461808  0.01468113     0.79000
C229        C  0.30502885  0.21552846  0.13724183     0.80100
C230        C  0.35066315  0.12637887  0.13524554     0.79200
Zn231      Zn  0.53838064  0.62749603  0.27242549     1.49700
Zn232      Zn  0.55129349  0.60907358  0.36158418     1.49400
Zn233      Zn  0.53262505  0.56695462  0.29341977     1.49100
Zn234      Zn  0.58783412  0.59226945  0.28380367     1.49500
O235        O  0.55250988  0.59874964  0.30319399    -1.82100
O236        O  0.52893594  0.65807318  0.30746119    -0.72700
O237        O  0.53305218  0.58145236  0.39467054    -0.72600
O238        O  0.50288412  0.57376408  0.25369069    -0.72100
O239        O  0.53384225  0.64464486  0.37157632    -0.72800
O240        O  0.50676677  0.61614755  0.24297453    -0.72400
O241        O  0.51949764  0.55345384  0.34733515    -0.72900
O242        O  0.59332354  0.55588863  0.26262054    -0.72300
O243        O  0.58804121  0.61097366  0.38286045    -0.73100
O244        O  0.55458626  0.53793971  0.26930718    -0.72500
O245        O  0.61213999  0.59834903  0.33003442    -0.72900
O246        O  0.59801659  0.61572505  0.23728784    -0.72800
O247        O  0.56282876  0.63975806  0.22934842    -0.72600
C248        C  0.52727330  0.66212120  0.34588196     0.79200
C249        C  0.52167818  0.56042735  0.38475857     0.79600
C250        C  0.49527401  0.59473658  0.23687655     0.78600
C251        C  0.57825975  0.53658688  0.25854067     0.79000
C252        C  0.61005138  0.60586973  0.36714468     0.80100
C253        C  0.58561783  0.63341820  0.21850688     0.79200
Zn254      Zn  0.40649766  0.42097243  0.64800557     1.49700
Zn255      Zn  0.46239395  0.39384593  0.66039334     1.49400
Zn256      Zn  0.42459138  0.40315702  0.73689188     1.49100
Zn257      Zn  0.40990521  0.36083136  0.66930844     1.49500
O258        O  0.42598310  0.39466520  0.67850745    -1.82100
O259        O  0.42990082  0.43904855  0.60843434    -0.72700
O260        O  0.48686023  0.39976950  0.70863320    -0.72600
O261        O  0.40639692  0.43711529  0.74655504    -0.72100
O262        O  0.46877965  0.42137149  0.61703379    -0.72800
O263        O  0.39175010  0.44876523  0.68530855    -0.72400
O264        O  0.46045751  0.40511701  0.76149819    -0.72900
O265        O  0.39542131  0.34602564  0.72203371    -0.72300
O266        O  0.47187744  0.35834731  0.63750513    -0.73100
O267        O  0.40518713  0.37596505  0.76839173    -0.72500
O268        O  0.43587359  0.33555901  0.64645510    -0.72900
O269        O  0.38041446  0.36322830  0.62902261    -0.72800
O270        O  0.37723164  0.40510000  0.61544328    -0.72600
C271        C  0.45386569  0.43773353  0.59948057     0.79200
C272        C  0.48328446  0.40330777  0.74697695     0.79600
C273        C  0.39391534  0.45281705  0.72375272     0.78600
C274        C  0.39495458  0.35435006  0.75888994     0.79000
C275        C  0.45944064  0.33706790  0.63518140     0.80100
C276        C  0.36934914  0.38194116  0.61056409     0.79200
Zn277      Zn  0.87570812  0.16926712  0.42597233     1.49700
Zn278      Zn  0.81573219  0.16884444  0.40396172     1.49400
Zn279      Zn  0.83416719  0.18839335  0.49124292     1.49100
Zn280      Zn  0.84621535  0.22298635  0.41117045     1.49500
O281        O  0.84297115  0.18758394  0.43297308    -1.82100
O282        O  0.87147609  0.13836350  0.38940735    -0.72700
O283        O  0.78703247  0.15800296  0.44179461    -0.72600
O284        O  0.85941964  0.16737805  0.52483325    -0.72100
O285        O  0.82946117  0.13725974  0.37497132    -0.72800
O286        O  0.88986390  0.15664885  0.47997146    -0.72400
O287        O  0.79830280  0.17459102  0.50198231    -0.72900
O288        O  0.84546451  0.24906801  0.45823719    -0.72300
O289        O  0.79908380  0.19171657  0.36211556    -0.73100
O290        O  0.83664860  0.22470986  0.51263331    -0.72500
O291        O  0.81735738  0.23037630  0.36932879    -0.72900
O292        O  0.88140441  0.22816999  0.38409602    -0.72800
O293        O  0.90237103  0.19201635  0.39996504    -0.72600
C294        C  0.85218245  0.12785696  0.37164132     0.79200
C295        C  0.78219686  0.16238341  0.47943536     0.79600
C296        C  0.88106569  0.15676865  0.51643505     0.78600
C297        C  0.84183543  0.24658674  0.49676047     0.79000
C298        C  0.80073686  0.21547342  0.35224106     0.80100
C299        C  0.90203771  0.21449865  0.38407100     0.79200
Zn300      Zn  0.63263696  0.31453844  0.10415445     1.49700
Zn301      Zn  0.65155801  0.35169933  0.02904362     1.49400
Zn302      Zn  0.67522768  0.29393394  0.04031394     1.49100
Zn303      Zn  0.61732142  0.30231570  0.01175826     1.49500
O304        O  0.64438961  0.31587393  0.04668869    -1.82100
O305        O  0.62754689  0.35135460  0.12470039    -0.72700
O306        O  0.68916617  0.35479826  0.01198367    -0.72600
O307        O  0.68791116  0.28167382  0.09522865    -0.72100
O308        O  0.64402839  0.37657482  0.07579735    -0.72800
O309        O  0.65945510  0.29628533  0.14074093    -0.72400
O310        O  0.70434552  0.31458863  0.01650929    -0.72900
O311        O  0.62849484  0.26988674  0.98399540    -0.72300
O312        O  0.62883320  0.36305283  0.98010257    -0.73100
O313        O  0.66903802  0.26257219  0.00362128    -0.72500
O314        O  0.60613262  0.32743995  0.96882986    -0.72900
O315        O  0.58604849  0.29298578  0.04370124    -0.72800
O316        O  0.59759030  0.29635091  0.10913848    -0.72600
C317        C  0.63341132  0.37365684  0.11078486     0.79200
C318        C  0.70749598  0.33838123  0.00774281     0.79600
C319        C  0.68042090  0.28422176  0.13222179     0.78600
C320        C  0.64889552  0.25606428  0.98341970     0.79000
C321        C  0.61170995  0.35066480  0.95967064     0.80100
C322        C  0.58099466  0.29038237  0.08158522     0.79200
Zn323      Zn  0.04488818  0.63438849  0.21384143     1.49700
Zn324      Zn  0.03408285  0.57585845  0.19195006     1.49400
Zn325      Zn  0.05570468  0.61653726  0.12383842     1.49100
Zn326      Zn  0.09228002  0.59713868  0.19999609     1.49500
O327        O  0.05687354  0.60559112  0.18194174    -1.82100
O328        O  0.01304067  0.62583185  0.24390888    -0.72700
O329        O  0.02047045  0.56316508  0.13760030    -0.72600
O330        O  0.03956280  0.65264858  0.11511748    -0.72100
O331        O  0.00363515  0.58493569  0.22988595    -0.72800
O332        O  0.03627194  0.66483421  0.17995232    -0.72400
O333        O  0.03616999  0.59003817  0.09060828    -0.72900
O334        O  0.11680753  0.60468707  0.15370714    -0.72300
O335        O  0.05440904  0.54577425  0.21642063    -0.73100
O336        O  0.09211268  0.61809051  0.10167001    -0.72500
O337        O  0.09514225  0.55935773  0.21656095    -0.72900
O338        O  0.10415409  0.61906628  0.24902578    -0.72800
O339        O  0.07069807  0.64567381  0.25487993    -0.72600
C340        C  0.99845149  0.60628424  0.24794356     0.79200
C341        C  0.02326135  0.56995289  0.10027479     0.79600
C342        C  0.03415278  0.66981537  0.14200156     0.78600
C343        C  0.11427785  0.61311141  0.11715058     0.79000
C344        C  0.07845221  0.54166425  0.22313376     0.80100
C345        C  0.09302121  0.63824128  0.26632569     0.79200
Zn346      Zn  0.91015241  0.42913575  0.83547281     1.49700
Zn347      Zn  0.93008264  0.41401006  0.74663628     1.49400
Zn348      Zn  0.96732501  0.40303023  0.82322483     1.49100
Zn349      Zn  0.91509990  0.37033601  0.80960825     1.49500
O350        O  0.93092477  0.40418492  0.80412632    -1.82100
O351        O  0.89518834  0.45738057  0.79920887    -0.72700
O352        O  0.96584214  0.41628103  0.72350936    -0.72600
O353        O  0.97254917  0.42999583  0.86828302    -0.72100
O354        O  0.91252660  0.44793950  0.73894816    -0.72800
O355        O  0.93308905  0.44667772  0.87615774    -0.72400
O356        O  0.99247416  0.40989100  0.77603262    -0.72900
O357        O  0.94048323  0.34484961  0.83197709    -0.72300
O358        O  0.91048482  0.38841448  0.71197639    -0.73100
O359        O  0.97658914  0.36695291  0.84459944    -0.72500
O360        O  0.90144394  0.35702578  0.75570283    -0.72900
O361        O  0.88507156  0.37106917  0.84799321    -0.72800
O362        O  0.88070920  0.41215354  0.86640307    -0.72600
C363        C  0.89871310  0.46258252  0.76143425     0.79200
C364        C  0.98870252  0.41414671  0.73791257     0.79600
C365        C  0.95699728  0.44580806  0.88579835     0.78600
C366        C  0.96374134  0.34585708  0.84492598     0.79000
C367        C  0.90056915  0.36644757  0.71967805     0.80100
C368        C  0.87328583  0.38867096  0.86792376     0.79200
C369        C  0.96085000  0.50368429  0.95754965     0.14700
C370        C  0.98494826  0.49983416  0.97637154     0.01600
C371        C  0.99989958  0.47806508  0.96606208     0.16600
C372        C  0.99083988  0.46026396  0.93692041     0.26000
C373        C  0.96667098  0.46412456  0.91749870    -0.40300
C374        C  0.95174821  0.48608384  0.92836548     0.33100
C375        C  0.99417225  0.51839552  0.00743010     0.01700
F376        F  0.02309767  0.47389416  0.98473924    -0.12600
F377        F  0.92847284  0.49092696  0.91033183    -0.13100
C378        C  0.98326368  0.51843847  0.04674641     0.16600
C379        C  0.99215123  0.53573315  0.07660578     0.26000
C380        C  0.01210470  0.55340962  0.06749478    -0.40200
C381        C  0.02241154  0.55380056  0.02740907     0.33000
C382        C  0.01355344  0.53630702  0.99771891     0.14700
F383        F  0.96426394  0.50136608  0.05636586    -0.12600
F384        F  0.04165338  0.57046105  0.01718963    -0.13100
F385        F  0.98119460  0.53510907  0.11443261    -0.15400
F386        F  0.02392564  0.53675633  0.95946479    -0.14000
F387        F  0.94624519  0.52474551  0.96718792    -0.14000
F388        F  0.00552286  0.43908860  0.92835772    -0.15400
C389        C  0.81914362  0.39049121  0.94685775     0.14700
C390        C  0.80526954  0.36805032  0.93649087     0.01600
C391        C  0.81408355  0.35217701  0.90447539     0.16600
C392        C  0.83628864  0.35878356  0.88257468     0.26000
C393        C  0.85020741  0.38148004  0.89236767    -0.40300
C394        C  0.84149338  0.39717464  0.92504266     0.33100
C395        C  0.78087812  0.36160868  0.95758433     0.01700
F396        F  0.80062362  0.33065486  0.89351631    -0.12600
F397        F  0.85468851  0.41880804  0.93619567    -0.13100
C398        C  0.75870169  0.37682622  0.95110052     0.16600
C399        C  0.73493936  0.36958795  0.96801126     0.26000
C400        C  0.73296993  0.34691828  0.99178705    -0.40200
C401        C  0.75550643  0.33201297  0.99895957     0.33000
C402        C  0.77920964  0.33929614  0.98186236     0.14700
F403        F  0.75986700  0.39813965  0.92686857    -0.12600
F404        F  0.75469807  0.31037897  0.02253858    -0.13100
F405        F  0.71368583  0.38420638  0.95957280    -0.15400
F406        F  0.80055794  0.32446255  0.98870596    -0.14000
F407        F  0.81103949  0.40584570  0.97821362    -0.14000
F408        F  0.84356870  0.34334955  0.85079466    -0.15400
C409        C  0.87083365  0.34870970  0.61631440     0.14700
C410        C  0.86753315  0.32184603  0.62046125     0.01600
C411        C  0.87414297  0.30998640  0.65786155     0.16600
C412        C  0.88415253  0.32456402  0.69035953     0.26000
C413        C  0.88824173  0.35138357  0.68600820    -0.40300
C414        C  0.88110615  0.36336436  0.64872777     0.33100
C415        C  0.85813883  0.30575087  0.58568877     0.01700
F416        F  0.87180765  0.28396955  0.66249090    -0.12600
F417        F  0.88385751  0.38930373  0.64359900    -0.13100
C418        C  0.87176987  0.30509596  0.54835804     0.16600
C419        C  0.86523753  0.28701262  0.51791012     0.26000
C420        C  0.84520678  0.26904308  0.52459932    -0.40200
C421        C  0.83072581  0.27070068  0.56105351     0.33000
C422        C  0.83696705  0.28904530  0.59108569     0.14700
F423        F  0.89258538  0.32069617  0.54253710    -0.12600
F424        F  0.81095993  0.25400519  0.56817383    -0.13100
F425        F  0.87990126  0.28571071  0.48341794    -0.15400
F426        F  0.82286853  0.28991485  0.62619900    -0.14000
F427        F  0.86398658  0.36078441  0.58091738    -0.14000
F428        F  0.89062238  0.31211835  0.72561426    -0.15400
C429        C  0.73958084  0.25884606  0.18949447     0.14700
C430        C  0.72951227  0.25380815  0.22851402     0.01600
C431        C  0.70308103  0.25823081  0.23600672     0.16600
C432        C  0.68693626  0.26798730  0.20485143     0.26000
C433        C  0.69703503  0.27337946  0.16557957    -0.40300
C434        C  0.72361148  0.26853510  0.15835550     0.33100
C435        C  0.74689307  0.24400090  0.26117254     0.01700
F436        F  0.69292003  0.25293341  0.27344070    -0.12600
F437        F  0.73446690  0.27376370  0.12138227    -0.13100
C438        C  0.75876157  0.26123334  0.28877615     0.16600
C439        C  0.77653652  0.25216110  0.31808478     0.26000
C440        C  0.78262001  0.22557226  0.32039478    -0.40200
C441        C  0.77054374  0.20838357  0.29246499     0.33000
C442        C  0.75295008  0.21756835  0.26312926     0.14700
F443        F  0.75329973  0.28693236  0.28698412    -0.12600
F444        F  0.77611004  0.18266172  0.29285533    -0.13100
F445        F  0.78741922  0.26935796  0.34455569    -0.15400
F446        F  0.74195422  0.20065600  0.23628625    -0.14000
F447        F  0.76509036  0.25461630  0.18170766    -0.14000
F448        F  0.66140916  0.27173910  0.21297946    -0.15400
C449        C  0.55075977  0.39175930  0.79089645     0.14700
C450        C  0.54653654  0.39559888  0.83304191     0.01600
C451        C  0.52256505  0.40546502  0.84608954     0.16600
C452        C  0.50245408  0.40956803  0.81779934     0.26000
C453        C  0.50591621  0.40377771  0.77571651    -0.40300
C454        C  0.53075566  0.39588755  0.76245819     0.33100
C455        C  0.56522160  0.38506211  0.86347956     0.01700
F456        F  0.51797862  0.40930611  0.88667696    -0.12600
F457        F  0.53540710  0.39056839  0.72230934    -0.13100
C458        C  0.57866105  0.40107646  0.89125398     0.16600
C459        C  0.59477593  0.39017358  0.92162720     0.26000
C460        C  0.59731607  0.36301853  0.92502466    -0.40200
C461        C  0.58427343  0.34725479  0.89616148     0.33000
C462        C  0.56844579  0.35815521  0.86598534     0.14700
F463        F  0.57592117  0.42719588  0.88923514    -0.12600
F464        F  0.58649433  0.32105717  0.89726417    -0.13100
F465        F  0.60703579  0.40614208  0.94852501    -0.15400
F466        F  0.55533593  0.34224389  0.83998232    -0.14000
F467        F  0.57394281  0.38258927  0.77753494    -0.14000
F468        F  0.47923414  0.41804675  0.83210646    -0.15400
C469        C  0.61222591  0.49061559  0.18527997     0.14700
C470        C  0.60547440  0.46625361  0.20125189     0.01600
C471        C  0.59055155  0.46523989  0.23735747     0.16600
C472        C  0.58180334  0.48807519  0.25620992     0.26000
C473        C  0.58831971  0.51237925  0.23989192    -0.40300
C474        C  0.60400188  0.51342411  0.20468776     0.33100
C475        C  0.61303713  0.44202844  0.17931572     0.01700
F476        F  0.58455923  0.44208821  0.25451922    -0.12600
F477        F  0.61036455  0.53658458  0.18789956    -0.13100
C478        C  0.63906605  0.43721588  0.16859996     0.16600
C479        C  0.64579086  0.41496792  0.14620356     0.26000
C480        C  0.62674782  0.39683158  0.13516767    -0.40200
C481        C  0.60086868  0.40136308  0.14634336     0.33000
C482        C  0.59401408  0.42387186  0.16777744     0.14700
F483        F  0.65802268  0.45392035  0.18020193    -0.12600
F484        F  0.58202986  0.38447168  0.13489358    -0.13100
F485        F  0.67095220  0.41089059  0.13587466    -0.15400
F486        F  0.56860931  0.42836963  0.17598278    -0.14000
F487        F  0.62590945  0.49236767  0.14986329    -0.14000
F488        F  0.56733341  0.48644920  0.29084679    -0.15400
C489        C  0.49884392  0.49990993  0.43958055     0.14700
C490        C  0.49405487  0.50929001  0.47918951     0.01600
C491        C  0.49809567  0.53556955  0.48803625     0.16600
C492        C  0.50690203  0.55237773  0.45742367     0.26000
C493        C  0.51160005  0.54309199  0.41732345    -0.40300
C494        C  0.50751232  0.51657346  0.40889401     0.33100
C495        C  0.48400690  0.49159442  0.51074142     0.01700
F496        F  0.49339838  0.54492072  0.52629968    -0.12600
F497        F  0.51247613  0.50648981  0.37118058    -0.13100
C498        C  0.50103848  0.47712644  0.53527805     0.16600
C499        C  0.49138053  0.45943507  0.56389066     0.26000
C500        C  0.46440039  0.45593439  0.56837429    -0.40200
C501        C  0.44745415  0.47055667  0.54325788     0.33000
C502        C  0.45723498  0.48819356  0.51482021     0.14700
F503        F  0.52705352  0.48009708  0.53135151    -0.12600
F504        F  0.42135004  0.46761952  0.54559895    -0.13100
F505        F  0.50849418  0.44600567  0.58740546    -0.15400
F506        F  0.44054714  0.50182392  0.49080323    -0.14000
F507        F  0.49510572  0.47448578  0.43066835    -0.14000
F508        F  0.51049278  0.57773003  0.46697718    -0.15400
C509        C  0.47827669  0.21908264  0.11689161     0.14700
C510        C  0.48059701  0.24614645  0.11719753     0.01600
C511        C  0.45801066  0.26138141  0.11891841     0.16600
C512        C  0.43349370  0.24988794  0.11661567     0.26000
C513        C  0.43106568  0.22279120  0.11263388    -0.40300
C514        C  0.45381595  0.20748404  0.11500621     0.33100
C515        C  0.50617138  0.25846954  0.11027694     0.01700
F516        F  0.45976883  0.28758783  0.12092952    -0.12600
F517        F  0.45267795  0.18123385  0.11323668    -0.13100
C518        C  0.50965848  0.27399996  0.07540763     0.16600
C519        C  0.53379713  0.28476603  0.06683234     0.26000
C520        C  0.55516826  0.28018063  0.09287495    -0.40200
C521        C  0.55170377  0.26477663  0.12801803     0.33000
C522        C  0.52739959  0.25389913  0.13654661     0.14700
F523        F  0.48979599  0.27802846  0.04868431    -0.12600
F524        F  0.57203942  0.25937530  0.15314952    -0.13100
F525        F  0.53621087  0.29970387  0.03280020    -0.15400
F526        F  0.52463977  0.23876370  0.17024444    -0.14000
F527        F  0.49973875  0.20383269  0.11533937    -0.14000
F528        F  0.41228058  0.26548843  0.11634921    -0.15400
C529        C  0.35531324  0.30243331  0.81253030     0.14700
C530        C  0.36279721  0.30595324  0.85371147     0.01600
C531        C  0.37952212  0.32641780  0.86380949     0.16600
C532        C  0.38937575  0.34253015  0.83320387     0.26000
C533        C  0.38281455  0.33843898  0.79160292    -0.40300
C534        C  0.36523326  0.31846671  0.78174187     0.33100
C535        C  0.35569175  0.28672455  0.88549158     0.01700
F536        F  0.38753976  0.32990861  0.90317680    -0.12600
F537        F  0.35771816  0.31428050  0.74229521    -0.13100
C538        C  0.36359186  0.26087391  0.88079524     0.16600
C539        C  0.35972555  0.24303195  0.91225541     0.26000
C540        C  0.34796248  0.25064472  0.94946299    -0.40200
C541        C  0.33943547  0.27641836  0.95380118     0.33000
C542        C  0.34318984  0.29428711  0.92197270     0.14700
F543        F  0.37629397  0.25313914  0.84640037    -0.12600
F544        F  0.32731499  0.28426285  0.98861819    -0.13100
F545        F  0.36870542  0.21850911  0.90686274    -0.15400
F546        F  0.33474225  0.31902351  0.92678989    -0.14000
F547        F  0.33870474  0.28313239  0.80205176    -0.14000
F548        F  0.40638068  0.36133492  0.84431056    -0.15400
C549        C  0.01390615  0.27521694  0.33456494     0.14700
C550        C  0.00328680  0.25648872  0.36095021     0.01600
C551        C  0.01769403  0.24841845  0.39526351     0.16600
C552        C  0.04200610  0.25890900  0.40343885     0.26000
C553        C  0.05262666  0.27800559  0.37769879    -0.40300
C554        C  0.03850184  0.28584065  0.34277811     0.33100
C555        C  0.97669630  0.24606333  0.35520884     0.01700
F556        F  0.00771821  0.23099225  0.42206205    -0.12600
F557        F  0.04790832  0.30455830  0.31777868    -0.13100
C558        C  0.97279394  0.21914545  0.35437823     0.16600
C559        C  0.94811469  0.20881760  0.36070263     0.26000
C560        C  0.92668779  0.22526114  0.36773987    -0.40200
C561        C  0.93019260  0.25223380  0.36385652     0.33000
C562        C  0.95502739  0.26252592  0.35790023     0.14700
F563        F  0.99327937  0.20278583  0.35019910    -0.12600
F564        F  0.91002246  0.26883131  0.36911761    -0.13100
F565        F  0.94553430  0.18266185  0.36199211    -0.15400
F566        F  0.95814930  0.28861798  0.35844060    -0.14000
F567        F  0.00036518  0.28337695  0.30121091    -0.14000
F568        F  0.05509166  0.25045599  0.43711278    -0.15400
C569        C  0.31344435  0.34709120  0.55808079     0.14700
C570        C  0.30143927  0.36733784  0.53644893     0.01600
C571        C  0.31256669  0.39210222  0.53739230     0.16600
C572        C  0.33489330  0.39678936  0.56070338     0.26000
C573        C  0.34661846  0.37669224  0.58355775    -0.40300
C574        C  0.33581520  0.35162574  0.58122522     0.33100
C575        C  0.27648243  0.36273479  0.51514564     0.01700
F576        F  0.30169881  0.41183142  0.51584023    -0.12600
F577        F  0.34635527  0.33147584  0.60219735    -0.13100
C578        C  0.25422398  0.37670304  0.52668932     0.16600
C579        C  0.22997747  0.37017897  0.51046577     0.26000
C580        C  0.22756110  0.34930892  0.48290386    -0.40200
C581        C  0.25003589  0.33615335  0.46989358     0.33000
C582        C  0.27429494  0.34293535  0.48569352     0.14700
F583        F  0.25573790  0.39573626  0.55542984    -0.12600
F584        F  0.24852714  0.31664396  0.44193802    -0.13100
F585        F  0.20871046  0.38330867  0.52357808    -0.15400
F586        F  0.29565443  0.32988152  0.47274344    -0.14000
F587        F  0.30285793  0.32303037  0.55819945    -0.14000
F588        F  0.34477687  0.42113068  0.56108090    -0.15400
C589        C  0.21058089  0.26988160  0.24619991     0.14700
C590        C  0.23384531  0.25810682  0.25882930     0.01600
C591        C  0.23826380  0.25434533  0.30090302     0.16600
C592        C  0.21997542  0.26243716  0.32996472     0.26000
C593        C  0.19654893  0.27455402  0.31768267    -0.40300
C594        C  0.19209279  0.27797718  0.27520230     0.33100
C595        C  0.25266265  0.24785746  0.22823018     0.01700
F596        F  0.26051886  0.24286929  0.31393912    -0.12600
F597        F  0.16982431  0.28906500  0.26149659    -0.13100
C598        C  0.26779345  0.26442155  0.20387477     0.16600
C599        C  0.28531393  0.25421863  0.17487385     0.26000
C600        C  0.28783708  0.22717796  0.16948918    -0.40200
C601        C  0.27288704  0.21080107  0.19491226     0.33000
C602        C  0.25563005  0.22103971  0.22371834     0.14700
F603        F  0.26576204  0.29047943  0.20849163    -0.12600
F604        F  0.27485452  0.18462244  0.19221984    -0.13100
F605        F  0.29946145  0.27082463  0.15181893    -0.15400
F606        F  0.24139167  0.20460319  0.24698971    -0.14000
F607        F  0.20551026  0.27301238  0.20559898    -0.14000
F608        F  0.22553682  0.25850611  0.37024516    -0.15400
C609        C  0.05076189  0.37161700  0.58907560     0.14700
C610        C  0.06266595  0.39062891  0.61352723     0.01600
C611        C  0.08867536  0.39708309  0.60616207     0.16600
C612        C  0.10244954  0.38488088  0.57432463     0.26000
C613        C  0.09047329  0.36578072  0.54969366    -0.40300
C614        C  0.06444566  0.35927803  0.55768624     0.33100
C615        C  0.04749239  0.40297208  0.64691175     0.01700
F616        F  0.10061545  0.41532724  0.62953372    -0.12600
F617        F  0.05195121  0.34118845  0.53471758    -0.13100
C618        C  0.05311944  0.39760569  0.68824764     0.16600
C619        C  0.03498014  0.40344133  0.71896525     0.26000
C620        C  0.01083447  0.41462290  0.70860361    -0.40200
C621        C  0.00677632  0.42273647  0.66772982     0.33000
C622        C  0.02485134  0.41680962  0.63724012     0.14700
F623        F  0.07518380  0.38474003  0.69846155    -0.12600
F624        F  0.98459850  0.43513234  0.65660592    -0.13100
F625        F  0.04026932  0.39624354  0.75815547    -0.15400
F626        F  0.01948225  0.42312407  0.59766965    -0.14000
F627        F  0.02577378  0.36469512  0.59605139    -0.14000
F628        F  0.12763534  0.39135259  0.56825703    -0.15400
C629        C  0.07717121  0.47240365  0.26421100     0.14700
C630        C  0.10309254  0.46865886  0.27590199     0.01600
C631        C  0.12116988  0.48829053  0.26840391     0.16600
C632        C  0.11338557  0.51166223  0.25031406     0.26000
C633        C  0.08713621  0.51601742  0.23964202    -0.40300
C634        C  0.06921848  0.49576277  0.24621437     0.33100
C635        C  0.11086857  0.44501832  0.29855405     0.01700
F636        F  0.14636826  0.48497798  0.27937506    -0.12600
F637        F  0.04385411  0.49854303  0.23585425    -0.13100
C638        C  0.11744098  0.42212551  0.27765323     0.16600
C639        C  0.12386060  0.39960682  0.29958599     0.26000
C640        C  0.12383379  0.39965442  0.34292380    -0.40200
C641        C  0.11775289  0.42295947  0.36358485     0.33000
C642        C  0.11129304  0.44531329  0.34158042     0.14700
F643        F  0.11763441  0.42162184  0.23598894    -0.12600
F644        F  0.11725858  0.42403107  0.40523001    -0.13100
F645        F  0.13043703  0.37790820  0.27838475    -0.15400
F646        F  0.10498600  0.46726488  0.36234918    -0.14000
F647        F  0.05938273  0.45360593  0.27125264    -0.14000
F648        F  0.13160427  0.53015440  0.24410012    -0.15400
C649        C  0.18261408  0.63229749  0.08988735     0.14700
C650        C  0.18292432  0.62836560  0.04723230     0.01600
C651        C  0.16040906  0.61956558  0.02727643     0.16600
C652        C  0.13792176  0.61455901  0.04986264     0.26000
C653        C  0.13780474  0.61804935  0.09276355    -0.40300
C654        C  0.16035041  0.62705872  0.11247148     0.33100
C655        C  0.20692754  0.63357037  0.02411926     0.01700
F656        F  0.16038463  0.61536024  0.98610914    -0.12600
F657        F  0.16060432  0.63166199  0.15353722    -0.13100
C658        C  0.23002106  0.62078272  0.03502947     0.16600
C659        C  0.25343386  0.62779070  0.01692351     0.26000
C660        C  0.25398106  0.64725114  0.98704756    -0.40200
C661        C  0.23082497  0.65928405  0.97467923     0.33000
C662        C  0.20739796  0.65262335  0.99336839     0.14700
F663        F  0.22989458  0.60176920  0.06374161    -0.12600
F664        F  0.23115465  0.67840693  0.94614988    -0.13100
F665        F  0.27563464  0.61565063  0.02858421    -0.15400
F666        F  0.18545115  0.66564225  0.98297355    -0.14000
F667        F  0.20381564  0.64177237  0.10960923    -0.14000
F668        F  0.11651522  0.60573196  0.02996106    -0.15400
C669        C  0.43776909  0.61919215  0.17778398     0.14700
C670        C  0.43752675  0.60238464  0.14377400     0.01600
C671        C  0.45448255  0.58098878  0.14318155     0.16600
C672        C  0.47219865  0.57717808  0.17532188     0.26000
C673        C  0.47323118  0.59483650  0.20818820    -0.40300
C674        C  0.45545804  0.61544754  0.20964895     0.33100
C675        C  0.42126475  0.60891528  0.10769300     0.01700
F676        F  0.45455280  0.56441557  0.11075625    -0.12600
F677        F  0.45604757  0.63269661  0.24119926    -0.13100
C678        C  0.43292830  0.61423004  0.06974560     0.16600
C679        C  0.41829235  0.62444717  0.03738699     0.26000
C680        C  0.39167146  0.62988540  0.04251163    -0.40200
C681        C  0.37981576  0.62326824  0.08002347     0.33000
C682        C  0.39448354  0.61282696  0.11217076     0.14700
F683        F  0.45887836  0.61109654  0.06479076    -0.12600
F684        F  0.35409334  0.62731193  0.08605736    -0.13100
F685        F  0.43062052  0.63029169  0.00184543    -0.15400
F686        F  0.38266778  0.60720367  0.14825032    -0.14000
F687        F  0.42206821  0.64032568  0.17884454    -0.14000
F688        F  0.48965982  0.55752478  0.17271181    -0.15400
C689        C  0.37969100  0.55819081  0.82731301     0.14700
C690        C  0.36088568  0.54834581  0.80030857     0.01600
C691        C  0.33805145  0.56262531  0.79350347     0.16600
C692        C  0.33396029  0.58625512  0.81395366     0.26000
C693        C  0.35275290  0.59606084  0.84146731    -0.40300
C694        C  0.37571182  0.58162639  0.84773351     0.33100
C695        C  0.36552782  0.52306320  0.77985728     0.01700
F696        F  0.31948762  0.55342365  0.76772613    -0.12600
F697        F  0.39430689  0.58979059  0.87435030    -0.13100
C698        C  0.37040528  0.50095967  0.80370482     0.16600
C699        C  0.37874601  0.47794695  0.78534252     0.26000
C700        C  0.38228935  0.47643912  0.74249242    -0.40200
C701        C  0.37584992  0.49821551  0.71835780     0.33000
C702        C  0.36761530  0.52132861  0.73695113     0.14700
F703        F  0.36768714  0.50188097  0.84513907    -0.12600
F704        F  0.37875171  0.49767111  0.67695320    -0.13100
F705        F  0.38370876  0.45725340  0.80979536    -0.15400
F706        F  0.36307827  0.54243764  0.71320745    -0.14000
F707        F  0.40217663  0.54506237  0.83381140    -0.14000
F708        F  0.31163836  0.59946987  0.80670808    -0.15400
C709        C  0.10629536  0.69108822  0.34372953     0.14700
C710        C  0.12319175  0.67886689  0.37131907     0.01600
C711        C  0.13220393  0.65374835  0.36264855     0.16600
C712        C  0.12340995  0.64059920  0.32740512     0.26000
C713        C  0.10545676  0.65251785  0.30066859    -0.40300
C714        C  0.09765621  0.67821279  0.30873368     0.33100
C715        C  0.13023604  0.69281402  0.40937324     0.01700
F716        F  0.14870299  0.64170046  0.38895870    -0.12600
F717        F  0.08137257  0.69097128  0.28286274    -0.13100
C718        C  0.11110711  0.69700076  0.43922005     0.16600
C719        C  0.11435717  0.71627379  0.46893894     0.26000
C720        C  0.13693425  0.73153278  0.46952159    -0.40200
C721        C  0.15709127  0.72570218  0.44198838     0.33000
C722        C  0.15366382  0.70652645  0.41186132     0.14700
F723        F  0.08840301  0.68376272  0.43751129    -0.12600
F724        F  0.17897887  0.74022760  0.44162284    -0.13100
F725        F  0.09482614  0.72096620  0.49584628    -0.15400
F726        F  0.17220015  0.70295650  0.38290225    -0.14000
F727        F  0.09775906  0.71555558  0.35118085    -0.14000
F728        F  0.13151858  0.61594538  0.32049804    -0.15400
C729        C  0.22771259  0.74840102  0.69115537     0.14700
C730        C  0.22582438  0.75611688  0.73241770     0.01600
C731        C  0.20555953  0.77287470  0.74397695     0.16600
C732        C  0.18755624  0.78178272  0.71472044     0.26000
C733        C  0.18951837  0.77413122  0.67319959    -0.40300
C734        C  0.20979351  0.75711101  0.66201528     0.33100
C735        C  0.24442978  0.74554814  0.76322484     0.01700
F736        F  0.20293690  0.78028993  0.78376101    -0.12600
F737        F  0.21236296  0.74862730  0.62273432    -0.13100
C738        C  0.26047283  0.76186944  0.78680366     0.16600
C739        C  0.27869235  0.75139863  0.81444552     0.26000
C740        C  0.28124143  0.72430839  0.81904111    -0.40200
C741        C  0.26491407  0.70815364  0.79523242     0.33000
C742        C  0.24678365  0.71865502  0.76799433     0.14700
F743        F  0.25883594  0.78796606  0.78250930    -0.12600
F744        F  0.26630535  0.68195651  0.79804754    -0.13100
F745        F  0.29360254  0.76784637  0.83686092    -0.15400
F746        F  0.23119088  0.70237930  0.74638817    -0.14000
F747        F  0.24722887  0.73250672  0.67885560    -0.14000
F748        F  0.16851667  0.79822152  0.72702955    -0.15400
C749        C  0.96532572  0.77369054  0.10899713     0.14700
C750        C  0.99244122  0.77172297  0.10848593     0.01600
C751        C  0.00735317  0.79438490  0.11163064     0.16600
C752        C  0.99548310  0.81831143  0.11926294     0.26000
C753        C  0.96834926  0.81999341  0.12387303    -0.40300
C754        C  0.95335306  0.79758006  0.11647725     0.33100
C755        C  0.00497409  0.74609881  0.11379834     0.01700
F756        F  0.03362634  0.79298200  0.11027578    -0.12600
F757        F  0.92707714  0.79839197  0.11852104    -0.13100
C758        C  0.00281387  0.72621635  0.08436324     0.16600
C759        C  0.01304150  0.70144642  0.09247076     0.26000
C760        C  0.02524964  0.69623619  0.13039527    -0.40200
C761        C  0.02777658  0.71656881  0.15916852     0.33000
C762        C  0.01768757  0.74102317  0.15099944     0.14700
F763        F  0.99052516  0.73070670  0.04815533    -0.12600
F764        F  0.03979792  0.71284114  0.19584627    -0.13100
F765        F  0.01008898  0.68242896  0.06400133    -0.15400
F766        F  0.01935350  0.75961140  0.18048384    -0.14000
F767        F  0.95045441  0.75211365  0.10580439    -0.14000
F768        F  0.01079282  0.83937172  0.12498090    -0.15400
C769        C  0.86792312  0.01004501  0.30333511     0.14700
C770        C  0.87051935  0.03331995  0.28157058     0.01600
C771        C  0.87975213  0.03277267  0.24106437     0.16600
C772        C  0.88701409  0.00930977  0.22294498     0.26000
C773        C  0.88534669  0.98608812  0.24529257    -0.40300
C774        C  0.87532252  0.98661296  0.28538608     0.33100
C775        C  0.86520522  0.05822252  0.30221475     0.01700
F776        F  0.88217959  0.05505212  0.21937592    -0.12600
F777        F  0.87284048  0.96443880  0.30732941    -0.13100
C778        C  0.88529709  0.07616752  0.30785109     0.16600
C779        C  0.88096460  0.09895749  0.32991245     0.26000
C780        C  0.85638385  0.10421818  0.34679171    -0.40200
C781        C  0.83611936  0.08640304  0.34032286     0.33000
C782        C  0.84054719  0.06357233  0.31827151     0.14700
F783        F  0.90939542  0.07121709  0.29305512    -0.12600
F784        F  0.81223694  0.09060051  0.35646068    -0.13100
F785        F  0.90087430  0.11587962  0.33461346    -0.15400
F786        F  0.82080728  0.04654639  0.31281742    -0.14000
F787        F  0.85922624  0.01014658  0.34263654    -0.14000
F788        F  0.89688432  0.00949805  0.18434539    -0.15400
C789        C  0.05311344  0.86076690  0.38406426     0.14700
C790        C  0.05801426  0.88649741  0.37326319     0.01600
C791        C  0.07687316  0.90061327  0.39475020     0.16600
C792        C  0.09077692  0.88901157  0.42692669     0.26000
C793        C  0.08579774  0.86309169  0.43822084    -0.40300
C794        C  0.06669408  0.84916406  0.41618025     0.33100
C795        C  0.04184979  0.89853409  0.34118584     0.01700
F796        F  0.08165215  0.92564203  0.38472603    -0.12600
F797        F  0.06066739  0.82433833  0.42587345    -0.13100
C798        C  0.01893243  0.91123624  0.35242352     0.16600
C799        C  0.00003904  0.91679087  0.32290278     0.26000
C800        C  0.00373034  0.90949206  0.28148196    -0.40200
C801        C  0.02789791  0.89894880  0.26988060     0.33000
C802        C  0.04668710  0.89330255  0.29965074     0.14700
F803        F  0.01401259  0.91642968  0.39254805    -0.12600
F804        F  0.03272036  0.89228647  0.23028655    -0.13100
F805        F  0.97757961  0.92802436  0.33543975    -0.15400
F806        F  0.06890099  0.88111634  0.28833246    -0.14000
F807        F  0.03458989  0.84699487  0.36392165    -0.14000
F808        F  0.10888669  0.90326008  0.44708852    -0.15400
C809        C  0.97005746  0.27785067  0.88583521     0.14700
C810        C  0.99482895  0.27077872  0.87187629     0.01600
C811        C  0.01079660  0.28987656  0.85434801     0.16600
C812        C  0.00143589  0.31510644  0.84837675     0.26000
C813        C  0.97582367  0.32146618  0.85916528    -0.40300
C814        C  0.96055659  0.30284662  0.87919272     0.33100
C815        C  0.00279432  0.24309332  0.87138601     0.01700
F816        F  0.03475057  0.28365345  0.84020021    -0.12600
F817        F  0.93603235  0.30864411  0.89121488    -0.13100
C818        C  0.98706345  0.22461707  0.85150706     0.16600
C819        C  0.99549448  0.19901726  0.84697759     0.26000
C820        C  0.02009570  0.19151770  0.86133639    -0.40200
C821        C  0.03539172  0.20967321  0.88270075     0.33000
C822        C  0.02670673  0.23518030  0.88801517     0.14700
F823        F  0.96419701  0.23173054  0.83405700    -0.12600
F824        F  0.05896932  0.20279456  0.89783718    -0.13100
F825        F  0.98042122  0.18210557  0.82569362    -0.15400
F826        F  0.04186587  0.25228089  0.90872945    -0.14000
F827        F  0.95464543  0.26020641  0.90455695    -0.14000
F828        F  0.01666367  0.33262130  0.82898235    -0.15400
C829        C  0.96134166  0.09599920  0.64418643     0.14700
C830        C  0.94295701  0.11580800  0.64986389     0.01600
C831        C  0.94170584  0.12857077  0.68800889     0.16600
C832        C  0.95947837  0.12262671  0.71912322     0.26000
C833        C  0.97912242  0.10416704  0.71229160    -0.40300
C834        C  0.97938589  0.09035285  0.67498733     0.33100
C835        C  0.92674893  0.12472944  0.61497849     0.01700
F836        F  0.92447584  0.14810840  0.69415506    -0.12600
F837        F  0.99759786  0.07185651  0.66788205    -0.13100
C838        C  0.89965135  0.12627112  0.61844655     0.16600
C839        C  0.88470402  0.13637554  0.58629918     0.26000
C840        C  0.89659605  0.14488120  0.54984533    -0.40200
C841        C  0.92371884  0.14274754  0.54617073     0.33000
C842        C  0.93861252  0.13297704  0.57850078     0.14700
F843        F  0.88764869  0.11792578  0.65298792    -0.12600
F844        F  0.93606199  0.15113284  0.51194743    -0.13100
F845        F  0.85857540  0.13763292  0.59081030    -0.15400
F846        F  0.96482537  0.13256303  0.57476013    -0.14000
F847        F  0.96234646  0.08268692  0.60821285    -0.14000
F848        F  0.95873623  0.13645312  0.75462276    -0.15400
C849        C  0.11034862  0.97441730  0.75328000     0.14700
C850        C  0.10470743  0.96903684  0.71195866     0.01600
C851        C  0.09171189  0.98767609  0.68833343     0.16600
C852        C  0.08442000  0.01137461  0.70557145     0.26000
C853        C  0.09008836  0.01709389  0.74709116    -0.40300
C854        C  0.10318562  0.99822518  0.77073651     0.33100
C855        C  0.11219160  0.94404876  0.69294667     0.01700
F856        F  0.08567935  0.98271040  0.64846993    -0.12600
F857        F  0.10927730  0.00275673  0.81068399    -0.13100
C858        C  0.10031059  0.92088537  0.70511164     0.16600
C859        C  0.10523230  0.89775570  0.68383203     0.26000
C860        C  0.12216590  0.89743586  0.64987856    -0.40200
C861        C  0.13489004  0.92061362  0.63908044     0.33000
C862        C  0.12987494  0.94362345  0.66034292     0.14700
F863        F  0.08297921  0.92093308  0.73639249    -0.12600
F864        F  0.15212114  0.92117712  0.60767139    -0.13100
F865        F  0.09248658  0.87600804  0.69538662    -0.15400
F866        F  0.14204153  0.96570044  0.64870114    -0.14000
F867        F  0.12319181  0.95675283  0.77654051    -0.14000
F868        F  0.07154513  0.02853523  0.68139602    -0.15400
C869        C  0.98024292  0.02443871  0.95044981     0.14700
C870        C  0.99548409  0.01633913  0.98399989     0.01600
C871        C  0.02082294  0.02599258  0.98801832     0.16600
C872        C  0.03099087  0.04279451  0.95851733     0.26000
C873        C  0.01592527  0.05059161  0.92454683    -0.40300
C874        C  0.99028574  0.04154056  0.92117921     0.33100
C875        C  0.98496667  0.99789312  0.01477741     0.01700
F876        F  0.03566911  0.01937241  0.02086497    -0.12600
F877        F  0.97529547  0.04830181  0.88857810    -0.13100
C878        C  0.99780690  0.97440428  0.02324144     0.16600
C879        C  0.98783319  0.95707773  0.05227212     0.26000
C880        C  0.96463220  0.96278164  0.07320818    -0.40200
C881        C  0.95189029  0.98639366  0.06465436     0.33000
C882        C  0.96199828  0.00372559  0.03593856     0.14700
F883        F  0.01977355  0.96796982  0.00271174    -0.12600
F884        F  0.92989092  0.99314614  0.08485290    -0.13100
F885        F  0.00061001  0.93447664  0.05913403    -0.15400
F886        F  0.94958848  0.02657863  0.02946779    -0.14000
F887        F  0.95586565  0.01509722  0.94528004    -0.14000
F888        F  0.05554163  0.05172229  0.96349472    -0.15400
C889        C  0.12554616  0.19519163  0.66610419     0.14700
C890        C  0.12896037  0.18357716  0.62748481     0.01600
C891        C  0.12312682  0.15722235  0.62253936     0.16600
C892        C  0.11271218  0.14299813  0.65507537     0.26000
C893        C  0.10770972  0.15496153  0.69329343    -0.40300
C894        C  0.11502489  0.18109377  0.69870504     0.33100
C895        C  0.13441819  0.19994182  0.59123527     0.01700
F896        F  0.12665690  0.14550227  0.58560977    -0.12600
F897        F  0.11071302  0.19356251  0.73480168    -0.13100
C898        C  0.15812945  0.21302517  0.58678827     0.16600
C899        C  0.16136369  0.23124766  0.55522821     0.26000
C900        C  0.14069042  0.23694897  0.52834486    -0.40200
C901        C  0.11750802  0.22278230  0.53178191     0.33000
C902        C  0.11447227  0.20443793  0.56275629     0.14700
F903        F  0.17778862  0.20871611  0.61373575    -0.12600
F904        F  0.09738193  0.22723879  0.50574537    -0.13100
F905        F  0.18401542  0.24445952  0.55266619    -0.15400
F906        F  0.09137546  0.19210742  0.56647096    -0.14000
F907        F  0.13077227  0.22074100  0.67147398    -0.14000
F908        F  0.10696363  0.11765916  0.64867935    -0.15400
C909        C  0.21480923  0.13484109  0.00178106     0.14700
C910        C  0.21257669  0.13348883  0.95896853     0.01600
C911        C  0.23415795  0.13874007  0.93444611     0.16600
C912        C  0.25783599  0.14536537  0.95244434     0.26000
C913        C  0.26039360  0.14676261  0.99560736    -0.40300
C914        C  0.23850273  0.14131790  0.02006153     0.33100
C915        C  0.18749088  0.12753082  0.93954273     0.01700
F916        F  0.23209334  0.13801030  0.89288424    -0.12600
F917        F  0.23975441  0.14263957  0.06165109    -0.13100
C918        C  0.16825449  0.14666872  0.93725187     0.16600
C919        C  0.14513916  0.14180260  0.91625453     0.26000
C920        C  0.14084026  0.11756708  0.89741661    -0.40200
C921        C  0.15995263  0.09816487  0.90077683     0.33000
C922        C  0.18320011  0.10322013  0.92148151     0.14700
F923        F  0.17222503  0.17034740  0.95435627    -0.12600
F924        F  0.15666911  0.07473500  0.88249842    -0.13100
F925        F  0.12699718  0.16086810  0.91427615    -0.15400
F926        F  0.20175235  0.08456618  0.92335949    -0.14000
F927        F  0.19394784  0.12996964  0.02584541    -0.14000
F928        F  0.27810453  0.15063815  0.92735216    -0.15400
C929        C  0.94859143  0.75763201  0.62262270     0.14700
C930        C  0.97077434  0.74241132  0.61579068     0.01600
C931        C  0.96781501  0.71599323  0.60667623     0.16600
C932        C  0.94323155  0.70540461  0.60109182     0.26000
C933        C  0.92080064  0.72096255  0.60520482    -0.40300
C934        C  0.92380225  0.74697832  0.61769502     0.33100
C935        C  0.99669165  0.75447566  0.61194515     0.01700
F936        F  0.98893808  0.70066662  0.60081075    -0.12600
F937        F  0.90286076  0.76254798  0.62321924    -0.13100
C938        C  0.00799284  0.76906932  0.64387975     0.16600
C939        C  0.03252523  0.78044376  0.63868137     0.26000
C940        C  0.04601233  0.77724198  0.60148345    -0.40200
C941        C  0.03458450  0.76218435  0.57001396     0.33000
C942        C  0.01019247  0.75140752  0.57497206     0.14700
F943        F  0.99534669  0.77217382  0.68003251    -0.12600
F944        F  0.04702170  0.75762749  0.53397867    -0.13100
F945        F  0.04271070  0.79499104  0.66948067    -0.15400
F946        F  0.99948892  0.73826874  0.54295370    -0.14000
F947        F  0.95088151  0.78326105  0.63120487    -0.14000
F948        F  0.94170640  0.68017729  0.58941489    -0.15400
C949        C  0.65586667  0.62380354  0.45398331     0.14700
C950        C  0.67994379  0.61918019  0.43562243     0.01600
C951        C  0.68110803  0.60841890  0.39617586     0.16600
C952        C  0.65841438  0.60338485  0.37442870     0.26000
C953        C  0.63401077  0.60908862  0.39179405    -0.40300
C954        C  0.63299720  0.61883434  0.43233630     0.33100
C955        C  0.70382423  0.62835860  0.45533842     0.01700
F956        F  0.70435639  0.60358532  0.37823067    -0.12600
F957        F  0.61005161  0.62446493  0.45059451    -0.13100
C958        C  0.71278514  0.61738791  0.49208038     0.16600
C959        C  0.73557753  0.62652939  0.51029976     0.26000
C960        C  0.74959482  0.64675688  0.49183682    -0.40200
C961        C  0.74027963  0.65773998  0.45506181     0.33000
C962        C  0.71761781  0.64858376  0.43707718     0.14700
F963        F  0.69972901  0.59755064  0.50973964    -0.12600
F964        F  0.75277737  0.67772409  0.43677277    -0.13100
F965        F  0.74420475  0.61516769  0.54533590    -0.15400
F966        F  0.70885230  0.65975967  0.40194689    -0.14000
F967        F  0.65453526  0.63445774  0.49209010    -0.14000
F968        F  0.66060965  0.59363304  0.33580905    -0.15400
C969        C  0.87530486  0.83463089  0.37023024     0.14700
C970        C  0.85470045  0.81790463  0.36030007     0.01600
C971        C  0.84534385  0.81757091  0.31960088     0.16600
C972        C  0.85730348  0.83240836  0.28911187     0.26000
C973        C  0.87842588  0.84855103  0.29882924    -0.40300
C974        C  0.88681520  0.84999892  0.33998572     0.33100
C975        C  0.84517511  0.79877749  0.39102726     0.01700
F976        F  0.82478646  0.80251941  0.30916581    -0.12600
F977        F  0.90711912  0.86529737  0.35072011    -0.13100
C978        C  0.83804009  0.80626368  0.43112883     0.16600
C979        C  0.83252608  0.78752242  0.46113780     0.26000
C980        C  0.83346933  0.76094130  0.45130674    -0.40200
C981        C  0.83915726  0.75372857  0.41043299     0.33000
C982        C  0.84523770  0.77230251  0.38104108     0.14700
F983        F  0.83666675  0.83173093  0.44137367    -0.12600
F984        F  0.84045870  0.72843431  0.39903384    -0.13100
F985        F  0.82647169  0.79539347  0.49973064    -0.15400
F986        F  0.85278158  0.76412357  0.34325359    -0.14000
F987        F  0.88535628  0.83504020  0.40879224    -0.14000
F988        F  0.84810905  0.83102447  0.25006413    -0.15400
C989        C  0.92377062  0.61527153  0.40849299     0.14700
C990        C  0.91774400  0.62226075  0.36789661     0.01600
C991        C  0.89511141  0.63663521  0.36019409     0.16600
C992        C  0.87950232  0.64508235  0.39255991     0.26000
C993        C  0.88602523  0.63906713  0.43358881    -0.40300
C994        C  0.90802860  0.62346269  0.44100663     0.33100
C995        C  0.93645212  0.61719772  0.33429485     0.01700
F996        F  0.88854836  0.64326373  0.32119141    -0.12600
F997        F  0.91483192  0.61666484  0.47981194    -0.13100
C998        C  0.94543615  0.59202292  0.32553829     0.16600
C999        C  0.96481040  0.58802542  0.29599042     0.26000
C1000       C  0.97548874  0.60920523  0.27486394    -0.40200
C1001       C  0.96544443  0.63419609  0.28240701     0.33000
C1002       C  0.94641323  0.63814056  0.31199965     0.14700
F1003       F  0.93572153  0.57138028  0.34604890    -0.12600
F1004       F  0.97440267  0.65511969  0.26165371    -0.13100
F1005       F  0.97388582  0.56366960  0.28948695    -0.15400
F1006       F  0.93856928  0.66274403  0.32019381    -0.14000
F1007       F  0.94572843  0.60172920  0.41695470    -0.14000
F1008       F  0.85867497  0.66018724  0.38355744    -0.15400
C1009       C  0.86482858  0.52777669  0.74919504     0.14700
C1010       C  0.86743325  0.53182874  0.70687932     0.01600
C1011       C  0.87896626  0.51273117  0.68240994     0.16600
C1012       C  0.88848934  0.49005290  0.69999571     0.26000
C1013       C  0.88685231  0.48605546  0.74280696    -0.40300
C1014       C  0.87445977  0.50505730  0.76714746     0.33100
C1015       C  0.86056565  0.55686085  0.68823812     0.01700
F1016       F  0.88156615  0.51639168  0.64135408    -0.12600
F1017       F  0.87233858  0.50214217  0.80840609    -0.13100
C1018       C  0.88043503  0.57397777  0.67763877     0.16600
C1019       C  0.87487575  0.59651451  0.65587757     0.26000
C1020       C  0.84919805  0.60235467  0.64403436    -0.40200
C1021       C  0.82912011  0.58545724  0.65591594     0.33000
C1022       C  0.83483580  0.56281125  0.67783970     0.14700
F1023       F  0.90542500  0.56848056  0.68764421    -0.12600
F1024       F  0.80417092  0.59016915  0.64478747    -0.13100
F1025       F  0.89478820  0.61249761  0.64616208    -0.15400
F1026       F  0.81546055  0.54616734  0.68745372    -0.14000
F1027       F  0.85385897  0.54626581  0.77327016    -0.14000
F1028       F  0.89967101  0.47225312  0.67485922    -0.15400
C1029       C  0.50435218  0.77421658  0.90632505     0.14700
C1030       C  0.50175103  0.75448934  0.87680263     0.01600
C1031       C  0.52387204  0.74616739  0.85524423     0.16600
C1032       C  0.54820570  0.75708602  0.86364514     0.26000
C1033       C  0.55078468  0.77682306  0.89334451    -0.40300
C1034       C  0.52846592  0.78539895  0.91425844     0.33100
C1035       C  0.47623549  0.74160956  0.87120022     0.01700
F1036       F  0.52192522  0.72741447  0.82610935    -0.12600
F1037       F  0.53007684  0.80378759  0.94403763    -0.13100
C1038       C  0.45372536  0.75636127  0.86399853     0.16600
C1039       C  0.42915318  0.74504118  0.86678023     0.26000
C1040       C  0.42658077  0.71856130  0.87641299    -0.40200
C1041       C  0.44935100  0.70338663  0.87981120     0.33000
C1042       C  0.47382650  0.71485650  0.87767691     0.14700
F1043       F  0.45552248  0.78207481  0.85591668    -0.12600
F1044       F  0.44815418  0.67759153  0.88758488    -0.13100
F1045       F  0.40796361  0.76038145  0.86193685    -0.15400
F1046       F  0.49511711  0.70003294  0.88498968    -0.14000
F1047       F  0.48366818  0.78187293  0.92906293    -0.14000
F1048       F  0.56918278  0.74839290  0.84260403    -0.15400
C1049       C  0.59266134  0.67326445  0.12179723     0.14700
C1050       C  0.61962146  0.67341630  0.11628778     0.01600
C1051       C  0.63550012  0.65962966  0.14372136     0.16600
C1052       C  0.62456904  0.64630927  0.17678662     0.26000
C1053       C  0.59751758  0.64669968  0.18298428    -0.40300
C1054       C  0.58170310  0.66007254  0.15469433     0.33100
C1055       C  0.63088587  0.69050070  0.08475052     0.01700
F1056       F  0.66163031  0.65948241  0.13885805    -0.12600
F1057       F  0.55551892  0.66060255  0.15883330    -0.13100
C1058       C  0.64580457  0.71181909  0.09707084     0.16600
C1059       C  0.65174348  0.73133846  0.06915836     0.26000
C1060       C  0.64258458  0.73006779  0.02832758    -0.40200
C1061       C  0.62955307  0.70751859  0.01519966     0.33000
C1062       C  0.62372352  0.68792646  0.04329447     0.14700
F1063       F  0.65281411  0.71483525  0.13701904    -0.12600
F1064       F  0.62077761  0.70516048  0.97603218    -0.13100
F1065       F  0.66529007  0.75216691  0.08288918    -0.15400
F1066       F  0.60980541  0.66708711  0.03058381    -0.14000
F1067       F  0.57692860  0.68693729  0.09627120    -0.14000
F1068       F  0.64055756  0.63382393  0.20340099    -0.15400
C1069       C  0.76120689  0.87695169  0.00476588     0.14700
C1070       C  0.77306732  0.86288714  0.03643858     0.01600
C1071       C  0.76120055  0.84043169  0.05143773     0.16600
C1072       C  0.73759491  0.83213583  0.03510479     0.26000
C1073       C  0.72562027  0.84608207  0.00312893    -0.40300
C1074       C  0.73771547  0.86854035  0.98798501     0.33100
C1075       C  0.79777608  0.87158993  0.05432716     0.01700
F1076       F  0.77240456  0.82671140  0.08229239    -0.12600
F1077       F  0.72653406  0.88270320  0.95762901    -0.13100
C1078       C  0.79854653  0.89370070  0.07944489     0.16600
C1079       C  0.82154328  0.90061765  0.09940241     0.26000
C1080       C  0.84392466  0.88534134  0.09463397    -0.40200
C1081       C  0.84325989  0.86361875  0.06855235     0.33000
C1082       C  0.82033617  0.85685891  0.04838976     0.14700
F1083       F  0.77671364  0.90780669  0.08615420    -0.12600
F1084       F  0.86479194  0.84888219  0.06282006    -0.13100
F1085       F  0.82152021  0.92124021  0.12535742    -0.15400
F1086       F  0.81997993  0.83570749  0.02353398    -0.14000
F1087       F  0.77250368  0.89871896  0.98996598    -0.14000
F1088       F  0.72673245  0.81018988  0.05009442    -0.15400
C1089       C  0.72252859  0.78354768  0.76403304     0.14700
C1090       C  0.72678216  0.75676352  0.75972974     0.01600
C1091       C  0.71402013  0.73978789  0.78674867     0.16600
C1092       C  0.69727957  0.74934725  0.81708110     0.26000
C1093       C  0.69336495  0.77620151  0.82186687    -0.40300
C1094       C  0.70629959  0.79316612  0.79493156     0.33100
C1095       C  0.74415838  0.74654589  0.72680808     0.01700
F1096       F  0.71825545  0.71386120  0.78451855    -0.12600
F1097       F  0.70300403  0.81919940  0.79795633    -0.13100
C1098       C  0.76947236  0.75627519  0.72169036     0.16600
C1099       C  0.78562585  0.74662985  0.69055127     0.26000
C1100       C  0.77708463  0.72655393  0.66456993    -0.40200
C1101       C  0.75177630  0.71685694  0.66976376     0.33000
C1102       C  0.73544734  0.72695449  0.70007751     0.14700
F1103       F  0.77889506  0.77462885  0.74761856    -0.12600
F1104       F  0.74252849  0.69783803  0.64487869    -0.13100
F1105       F  0.80995498  0.75628956  0.68685185    -0.15400
F1106       F  0.71084387  0.71783521  0.70275502    -0.14000
F1107       F  0.73368798  0.80051034  0.73771144    -0.14000
F1108       F  0.68555653  0.73225306  0.84255531    -0.15400
C1109       C  0.51351634  0.73420499  0.34661090     0.14700
C1110       C  0.49468001  0.73656574  0.37734375     0.01600
C1111       C  0.48807060  0.71460136  0.40053891     0.16600
C1112       C  0.49971941  0.69044837  0.39217545     0.26000
C1113       C  0.51760309  0.68787282  0.35976519    -0.40300
C1114       C  0.52469131  0.71017007  0.33769171     0.33100
C1115       C  0.47994294  0.76123982  0.38042875     0.01700
F1116       F  0.46975967  0.71639374  0.43025640    -0.12600
F1117       F  0.54213100  0.70860448  0.30664671    -0.13100
C1118       C  0.45576559  0.76318361  0.36091459     0.16600
C1119       C  0.44445522  0.78741995  0.35373622     0.26000
C1120       C  0.45718063  0.81045764  0.36590184    -0.40200
C1121       C  0.48042338  0.80824729  0.38862348     0.33000
C1122       C  0.49174175  0.78385299  0.39558790     0.14700
F1123       F  0.44401643  0.74163601  0.34585476    -0.12600
F1124       F  0.49266560  0.82968307  0.40302144    -0.13100
F1125       F  0.42182855  0.78819679  0.33235417    -0.15400
F1126       F  0.51482213  0.78235926  0.41556767    -0.14000
F1127       F  0.52000492  0.75505065  0.32351335    -0.14000
F1128       F  0.49230667  0.66936213  0.41394025    -0.15400
C1129       C  0.37867760  0.07889380  0.21148153     0.14700
C1130       C  0.36051341  0.05873476  0.20919740     0.01600
C1131       C  0.33757773  0.06228204  0.18656427     0.16600
C1132       C  0.33362205  0.08501660  0.16424779     0.26000
C1133       C  0.35272887  0.10442531  0.16396653    -0.40300
C1134       C  0.37485306  0.10156450  0.18895942     0.33100
C1135       C  0.36700380  0.03303570  0.22609526     0.01700
F1136       F  0.31953889  0.04320510  0.18469479    -0.12600
F1137       F  0.39310730  0.12044424  0.19077514    -0.13100
C1138       C  0.37177417  0.02972228  0.26817934     0.16600
C1139       C  0.38002079  0.00570089  0.28315686     0.26000
C1140       C  0.38385186  0.98466436  0.25609328    -0.40200
C1141       C  0.37843129  0.98800520  0.21403158     0.33000
C1142       C  0.37011202  0.01195607  0.19925071     0.14700
F1143       F  0.36869983  0.04984235  0.29465795    -0.12600
F1144       F  0.38118780  0.96811481  0.18703055    -0.13100
F1145       F  0.38509877  0.00335516  0.32390623    -0.15400
F1146       F  0.36596501  0.01484354  0.15831845    -0.14000
F1147       F  0.40089682  0.07596618  0.23346480    -0.14000
F1148       F  0.31194062  0.08722184  0.14075887    -0.15400
C1149       C  0.57393134  0.85791969  0.13356432     0.14700
C1150       C  0.56168846  0.88205395  0.12769187     0.01600
C1151       C  0.56629925  0.89559516  0.09092494     0.16600
C1152       C  0.58110728  0.88433492  0.05957669     0.26000
C1153       C  0.59231252  0.85970088  0.06489452    -0.40300
C1154       C  0.58941158  0.84707580  0.10275558     0.33100
C1155       C  0.54196481  0.89141532  0.15772362     0.01700
F1156       F  0.55597990  0.91951585  0.08497709    -0.12600
F1157       F  0.60008757  0.82334098  0.10894413    -0.13100
C1158       C  0.54721255  0.89198282  0.20017851     0.16600
C1159       C  0.52727813  0.89659288  0.22855970     0.26000
C1160       C  0.50169526  0.90132891  0.21505789    -0.40200
C1161       C  0.49700443  0.90256411  0.17229770     0.33000
C1162       C  0.51675900  0.89738608  0.14418590     0.14700
F1163       F  0.57160809  0.88751994  0.21426962    -0.12600
F1164       F  0.47291074  0.90738756  0.15718874    -0.13100
F1165       F  0.53300196  0.89575446  0.26923005    -0.15400
F1166       F  0.51068906  0.89657801  0.10359698    -0.14000
F1167       F  0.56952481  0.84392283  0.16804348    -0.14000
F1168       F  0.58438343  0.89745562  0.02389388    -0.15400
C1169       C  0.34524181  0.80270575  0.05048579     0.14700
C1170       C  0.35490395  0.79619449  0.08960843     0.01600
C1171       C  0.35949894  0.77001909  0.09877973     0.16600
C1172       C  0.35431463  0.75069660  0.06988579     0.26000
C1173       C  0.34463376  0.75700536  0.03061819    -0.40300
C1174       C  0.34026347  0.78328780  0.02114531     0.33100
C1175       C  0.36093764  0.81626166  0.12110397     0.01700
F1176       F  0.36986317  0.76314902  0.13556821    -0.12600
F1177       F  0.33084493  0.79017568  0.98376958    -0.13100
C1178       C  0.35019566  0.81439652  0.16060711     0.16600
C1179       C  0.35907231  0.83023443  0.19257574     0.26000
C1180       C  0.37873690  0.84858265  0.18569896    -0.40200
C1181       C  0.38817854  0.85171605  0.14540435     0.33000
C1182       C  0.37945965  0.83559011  0.11348719     0.14700
F1183       F  0.33151045  0.79662990  0.16850444    -0.12600
F1184       F  0.40697954  0.86931135  0.13727190    -0.13100
F1185       F  0.34858614  0.82734241  0.23046300    -0.15400
F1186       F  0.39030272  0.83781890  0.07574195    -0.14000
F1187       F  0.34032152  0.82780752  0.04088014    -0.14000
F1188       F  0.35983135  0.72578390  0.08001446    -0.15400
C1189       C  0.30666207  0.89001679  0.44781672     0.14700
C1190       C  0.28989031  0.87060308  0.43327113     0.01600
C1191       C  0.29601013  0.85748724  0.39672534     0.16600
C1192       C  0.31889192  0.86294986  0.37582575     0.26000
C1193       C  0.33606030  0.88200738  0.39066547    -0.40300
C1194       C  0.32947755  0.89582095  0.42653357     0.33100
C1195       C  0.26635120  0.86326548  0.45640693     0.01700
F1196       F  0.27965879  0.83937385  0.38105976    -0.12600
F1197       F  0.34550916  0.91431744  0.44183267    -0.13100
C1198       C  0.24707851  0.88162204  0.46561484     0.16600
C1199       C  0.22412025  0.87404247  0.48496807     0.26000
C1200       C  0.21992741  0.84782145  0.49523019    -0.40200
C1201       C  0.23967567  0.82964195  0.48664942     0.33000
C1202       C  0.26261419  0.83734834  0.46779777     0.14700
F1203       F  0.25008866  0.90677768  0.45462343    -0.12600
F1204       F  0.23684689  0.80417762  0.49588510    -0.13100
F1205       F  0.20591190  0.89239111  0.49293142    -0.15400
F1206       F  0.28126982  0.81933157  0.46046655    -0.14000
F1207       F  0.30139395  0.90275580  0.48334920    -0.14000
F1208       F  0.32399575  0.84976127  0.34062521    -0.15400
C1209       C  0.51039771  0.28456447  0.62686369     0.14700
C1210       C  0.49528907  0.26343100  0.61407126     0.01600
C1211       C  0.46961518  0.26761930  0.60152000     0.16600
C1212       C  0.45842287  0.29222138  0.60529130     0.26000
C1213       C  0.47281272  0.31303301  0.62169039    -0.40300
C1214       C  0.49934113  0.30926225  0.63033049     0.33100
C1215       C  0.50440885  0.23680014  0.62217112     0.01700
F1216       F  0.45478566  0.24743046  0.58879506    -0.12600
F1217       F  0.51400755  0.32883902  0.64570457    -0.13100
C1218       C  0.50344102  0.22756443  0.66249241     0.16600
C1219       C  0.51201857  0.20265628  0.67179110     0.26000
C1220       C  0.52211259  0.18630684  0.64080299    -0.40200
C1221       C  0.52239477  0.19544905  0.59997929     0.33000
C1222       C  0.51352125  0.22052886  0.59077719     0.14700
F1223       F  0.49406646  0.24283745  0.69308858    -0.12600
F1224       F  0.53177484  0.18044736  0.56911631    -0.13100
F1225       F  0.51039821  0.19471951  0.71142147    -0.15400
F1226       F  0.51424617  0.22909416  0.55145119    -0.14000
F1227       F  0.53533570  0.28083392  0.63898681    -0.14000
F1228       F  0.43310832  0.29536483  0.59487001    -0.15400
C1229       C  0.46466011  0.07651081  0.85345195     0.14700
C1230       C  0.45279421  0.10041653  0.86234567     0.01600
C1231       C  0.45828159  0.12190968  0.83770570     0.16600
C1232       C  0.47581985  0.11990777  0.80535863     0.26000
C1233       C  0.48829405  0.09623397  0.79663651    -0.40300
C1234       C  0.48217961  0.07435447  0.82053864     0.33100
C1235       C  0.43493980  0.10391766  0.89748802     0.01700
F1236       F  0.44700265  0.14516576  0.84570148    -0.12600
F1237       F  0.49395127  0.05126391  0.81322892    -0.13100
C1238       C  0.44483703  0.10875196  0.93696211     0.16600
C1239       C  0.42870110  0.11863107  0.96793363     0.26000
C1240       C  0.40231094  0.12400271  0.95979170    -0.40200
C1241       C  0.39216175  0.11712100  0.92093480     0.33000
C1242       C  0.40835878  0.10731985  0.89016216     0.14700
F1243       F  0.47054611  0.10568934  0.94463710    -0.12600
F1244       F  0.36671448  0.12085974  0.91193399    -0.13100
F1245       F  0.43940817  0.12454954  0.00489919    -0.15400
F1246       F  0.39837121  0.10253934  0.85228467    -0.14000
F1247       F  0.45950629  0.05544293  0.87685110    -0.14000
F1248       F  0.48066909  0.14132024  0.78254123    -0.15400
C1249       C  0.59229984  0.96781117  0.76093882     0.14700
C1250       C  0.61075527  0.96884613  0.79276833     0.01600
C1251       C  0.62338616  0.99239176  0.80120310     0.16600
C1252       C  0.61700870  0.01467279  0.77899943     0.26000
C1253       C  0.59737669  0.01386440  0.74891028    -0.40300
C1254       C  0.58537922  0.99017550  0.73967901     0.33100
C1255       C  0.61578172  0.94552179  0.81792404     0.01700
F1256       F  0.64092456  0.99415732  0.83225590    -0.12600
F1257       F  0.56683241  0.98868342  0.71009637    -0.13100
C1258       C  0.64106815  0.93597213  0.82339608     0.16600
C1259       C  0.64535408  0.91312498  0.84535959     0.26000
C1260       C  0.62433378  0.89910916  0.86172278    -0.40200
C1261       C  0.59904868  0.90912572  0.85679461     0.33000
C1262       C  0.59493115  0.93221317  0.83567285     0.14700
F1263       F  0.66161923  0.94839406  0.80661255    -0.12600
F1264       F  0.57809026  0.89660641  0.87209824    -0.13100
F1265       F  0.67014772  0.90481338  0.85040956    -0.15400
F1266       F  0.57040366  0.94167281  0.83269258    -0.14000
F1267       F  0.58070857  0.94509699  0.75072255    -0.14000
F1268       F  0.62891743  0.03732656  0.78865344    -0.15400
C1269       C  0.49942541  0.97401871  0.46286205     0.14700
C1270       C  0.48292685  0.99038243  0.48538394     0.01600
C1271       C  0.45611682  0.98882971  0.47873517     0.16600
C1272       C  0.44590595  0.97140032  0.44984146     0.26000
C1273       C  0.46232218  0.95491906  0.42667529    -0.40300
C1274       C  0.48931816  0.95645201  0.43386565     0.33100
C1275       C  0.49353251  0.00855411  0.51676335     0.01700
F1276       F  0.43974646  0.00429973  0.50032672    -0.12600
F1277       F  0.50604578  0.94120188  0.41263207    -0.13100
C1278       C  0.50175747  0.03350988  0.50585100     0.16600
C1279       C  0.51197785  0.05048686  0.53559722     0.26000
C1280       C  0.51415978  0.04284669  0.57714418    -0.40200
C1281       C  0.50538721  0.01781090  0.58782212     0.33000
C1282       C  0.49520752  0.00098406  0.55799298     0.14700
F1283       F  0.49984538  0.04146091  0.46626389    -0.12600
F1284       F  0.50704776  0.00921332  0.62708965    -0.13100
F1285       F  0.51965888  0.07440693  0.52354743    -0.15400
F1286       F  0.48713374  0.97705507  0.56935073    -0.14000
F1287       F  0.52543698  0.97503502  0.46906574    -0.14000
F1288       F  0.41976720  0.97076743  0.44483369    -0.15400
C1289       C  0.64278042  0.15183300  0.85832461     0.14700
C1290       C  0.63927760  0.17879373  0.85937425     0.01600
C1291       C  0.62680336  0.19120288  0.82651908     0.16600
C1292       C  0.61619480  0.17674059  0.79446048     0.26000
C1293       C  0.61815384  0.14961031  0.79447162    -0.40300
C1294       C  0.63246401  0.13726858  0.82571813     0.33100
C1295       C  0.64412327  0.19383906  0.89710638     0.01700
F1296       F  0.62344305  0.21729856  0.82694888    -0.12600
F1297       F  0.63465307  0.11106801  0.82638600    -0.13100
C1298       C  0.66825445  0.20541296  0.90485282     0.16600
C1299       C  0.67058133  0.22449163  0.93543427     0.34000
C1300       C  0.64862449  0.23235722  0.95790341    -0.40200
C1301       C  0.62507781  0.21910248  0.95212514     0.33000
C1302       C  0.62289331  0.20003315  0.92202705     0.14700
F1303       F  0.68901028  0.19948457  0.88108616    -0.12600
F1304       F  0.60376725  0.22541991  0.97444056    -0.13100
F1305       F  0.69366056  0.23664463  0.94072258    -0.15400
F1306       F  0.59948528  0.18879819  0.91519328    -0.14000
F1307       F  0.65465659  0.13955980  0.89005052    -0.14000
F1308       F  0.60317037  0.18918840  0.76403008    -0.15400
C1309       C  0.68479764  0.10598189  0.57411331     0.14700
C1310       C  0.68495693  0.12787196  0.54870955     0.01600
C1311       C  0.66180513  0.14169823  0.54229259     0.16600
C1312       C  0.63904672  0.13439046  0.56254981     0.26000
C1313       C  0.63919100  0.11317087  0.58968723    -0.40300
C1314       C  0.66218179  0.09870017  0.59443195     0.33100
C1315       C  0.70963714  0.13689163  0.53075110     0.01700
F1316       F  0.66157453  0.16306261  0.51807681    -0.12600
F1317       F  0.66289828  0.07762401  0.61925133    -0.13100
C1318       C  0.71298382  0.13769737  0.48808016     0.16600
C1319       C  0.73656897  0.14575627  0.47135969     0.26000
C1320       C  0.75728410  0.15336354  0.49716776    -0.40200
C1321       C  0.75372955  0.15252716  0.54004438     0.33000
C1322       C  0.73015530  0.14439158  0.55658044     0.14700
F1323       F  0.69349558  0.13027893  0.46255177    -0.12600
F1324       F  0.77313040  0.15926405  0.56622415    -0.13100
F1325       F  0.73892206  0.14634381  0.42987755    -0.15400
F1326       F  0.72722370  0.14408518  0.59799071    -0.14000
F1327       F  0.70675780  0.09186140  0.57972255    -0.14000
F1328       F  0.61737366  0.14902914  0.55754213    -0.15400
loop_ 
_geom_bond_atom_site_label_1 
_geom_bond_atom_site_label_2 
_geom_bond_distance 
_geom_bond_site_symmetry_2 
_ccdc_geom_bond_type 
Zn1           O5   1.964       .  S
Zn1           O6   2.058       .  S
Zn1          O10   2.008       .  S
Zn1          O17   2.037       .  S
Zn2           O5   1.933       .  S
Zn2           O7   2.001       .  S
Zn2           O9   1.994       .  S
Zn2          O13   1.980       .  S
Zn3           O5   1.968       .  S
Zn3           O8   2.001       .  S
Zn3          O11   2.026       .  S
Zn3          O14   2.002       .  S
Zn4           O5   1.977       .  S
Zn4          O12   2.039       .  S
Zn4          O15   2.054       .  S
Zn4          O16   2.057       .  S
O6           C18   1.277       .  A
O7           C19   1.271       .  A
O8           C20   1.272       .  A
O9           C18   1.271       .  A
O10          C20   1.274       .  A
O11          C19   1.271       .  A
O12          C21   1.276       .  A
O13          C22   1.270       .  A
O14          C21   1.274       .  A
O15          C22   1.277       .  A
O16          C23   1.279       .  A
O17          C23   1.278       .  A
C18        C1233   1.486       .  S
C19        C1293   1.474       .  S
C20        C1253   1.472       .  S
C21        C1313   1.482       .  S
C22        C1220   1.490       .  S
C23        C1280   1.503       .  S
Zn24         O28   1.961       .  S
Zn24         O29   2.012       .  S
Zn24         O33   2.025       .  S
Zn24         O40   2.010       .  S
Zn25         O28   1.982       .  S
Zn25         O30   2.066       .  S
Zn25         O32   2.080       .  S
Zn25         O36   2.062       .  S
Zn26         O28   1.950       .  S
Zn26         O31   2.000       .  S
Zn26         O34   2.006       .  S
Zn26         O37   2.023       .  S
Zn27         O28   1.960       .  S
Zn27         O35   2.027       .  S
Zn27         O38   1.997       .  S
Zn27         O39   2.008       .  S
O29          C41   1.275       .  A
O30          C42   1.280       .  A
O31          C43   1.272       .  A
O32          C41   1.281       .  A
O33          C43   1.274       .  A
O34          C42   1.273       .  A
O35          C44   1.272       .  A
O36          C45   1.280       .  A
O37          C44   1.273       .  A
O38          C45   1.272       .  A
O39          C46   1.273       .  A
O40          C46   1.272       .  A
C41        C1273   1.504       .  S
C42        C1120   1.497       .  S
C43        C1193   1.482       .  S
C44        C1180   1.489       .  S
C45        C1160   1.496       .  S
C46        C1140   1.481       .  S
Zn47         O51   1.947       .  S
Zn47         O52   2.009       .  S
Zn47         O56   1.999       .  S
Zn47         O63   2.017       .  S
Zn48         O51   1.972       .  S
Zn48         O53   2.047       .  S
Zn48         O55   2.038       .  S
Zn48         O59   2.034       .  S
Zn49         O51   1.951       .  S
Zn49         O54   2.010       .  S
Zn49         O57   2.011       .  S
Zn49         O60   2.008       .  S
Zn50         O51   1.949   1_554  S
Zn50         O58   2.001       .  S
Zn50         O61   1.990       .  S
Zn50         O62   2.022       .  S
O52          C64   1.274       .  A
O53          C65   1.278       .  A
O54          C66   1.273       .  A
O55          C64   1.277       .  A
O56          C66   1.272       .  A
O57          C65   1.273       .  A
O58          C67   1.272   1_554  A
O59          C68   1.275   1_556  A
O60          C67   1.272       .  A
O61          C68   1.272       .  A
O62          C69   1.272       .  A
O63          C69   1.272   1_556  A
C64        C1033   1.486       .  S
C65        C1093   1.492       .  S
C66        C1260   1.485       .  S
C67        C1073   1.476   1_556  S
C68        C1060   1.485       .  S
C69        C1153   1.480       .  S
Zn70         O74   1.983       .  S
Zn70         O75   2.042       .  S
Zn70         O79   2.061       .  S
Zn70         O86   2.070       .  S
Zn71         O74   1.944       .  S
Zn71         O76   1.995       .  S
Zn71         O78   1.984       .  S
Zn71         O82   2.022       .  S
Zn72         O74   1.961       .  S
Zn72         O77   2.005       .  S
Zn72         O80   2.029       .  S
Zn72         O83   2.013       .  S
Zn73         O74   1.935       .  S
Zn73         O81   1.974       .  S
Zn73         O84   2.002       .  S
Zn73         O85   1.978       .  S
O75          C87   1.277       .  A
O76          C88   1.271       .  A
O77          C89   1.274       .  A
O78          C87   1.271       .  A
O79          C89   1.280       .  A
O80          C88   1.274       .  A
O81          C90   1.269       .  A
O82          C91   1.272       .  A
O83          C90   1.273       .  A
O84          C91   1.270       .  A
O85          C92   1.269       .  A
O86          C92   1.278       .  A
C87         C933   1.489       .  S
C88        C1020   1.483       .  S
C89        C1100   1.488       .  S
C90         C960   1.474       .  S
C91         C993   1.489       .  S
C92         C980   1.492       .  S
Zn93         O97   1.949       .  S
Zn93         O98   2.001       .  S
Zn93        O102   2.021       .  S
Zn93        O109   2.000       .  S
Zn94         O97   1.961       .  S
Zn94         O99   2.026       .  S
Zn94        O101   2.033       .  S
Zn94        O105   2.017       .  S
Zn95         O97   1.952       .  S
Zn95        O100   2.024       .  S
Zn95        O103   1.991       .  S
Zn95        O106   2.002       .  S
Zn96         O97   1.972       .  S
Zn96        O104   2.037       .  S
Zn96        O107   2.048       .  S
Zn96        O108   2.027   1_455  S
O98         C110   1.272       .  A
O99         C111   1.275       .  A
O100        C112   1.273       .  A
O101        C110   1.275       .  A
O102        C112   1.273       .  A
O103        C111   1.271       .  A
O104        C113   1.276       .  A
O105        C114   1.274       .  A
O106        C113   1.272       .  A
O107        C114   1.278       .  A
O108        C115   1.275   1_655  A
O109        C115   1.272       .  A
C110        C853   1.491       .  S
C111        C920   1.478       .  S
C112        C893   1.492       .  S
C113        C820   1.478       .  S
C114        C873   1.486       .  S
C115        C833   1.478   1_455  S
Zn116       O120   1.971       .  S
Zn116       O121   2.034       .  S
Zn116       O125   2.045       .  S
Zn116       O132   2.036       .  S
Zn117       O120   1.953       .  S
Zn117       O122   2.000       .  S
Zn117       O124   1.998       .  S
Zn117       O128   2.018       .  S
Zn118       O120   1.957       .  S
Zn118       O123   2.011       .  S
Zn118       O126   2.006       .  S
Zn118       O129   2.016       .  S
Zn119       O120   1.952       .  S
Zn119       O127   1.996       .  S
Zn119       O130   2.035       .  S
Zn119       O131   2.007       .  S
O121        C133   1.276       .  A
O122        C134   1.272       .  A
O123        C135   1.273       .  A
O124        C133   1.272       .  A
O125        C135   1.277       .  A
O126        C134   1.272       .  A
O127        C136   1.271       .  A
O128        C137   1.272       .  A
O129        C136   1.273       .  A
O130        C137   1.275       .  A
O131        C138   1.274       .  A
O132        C138   1.276       .  A
C133        C800   1.487   1_655  S
C134        C773   1.473       .  S
C135        C880   1.490       .  S
C136       C1080   1.469       .  S
C137        C973   1.488       .  S
C138        C753   1.490       .  S
Zn139       O143   1.964       .  S
Zn139       O144   2.011       .  S
Zn139       O148   2.039       .  S
Zn139       O155   2.020       .  S
Zn140       O143   1.986       .  S
Zn140       O145   2.076       .  S
Zn140       O147   2.045       .  S
Zn140       O151   2.059       .  S
Zn141       O143   1.920       .  S
Zn141       O146   1.983       .  S
Zn141       O149   1.944       .  S
Zn141       O152   1.990       .  S
Zn142       O143   1.953       .  S
Zn142       O150   2.045       .  S
Zn142       O153   2.002       .  S
Zn142       O154   2.002       .  S
O144        C156   1.275       .  A
O145        C157   1.279       .  A
O146        C158   1.269       .  A
O147        C156   1.278       .  A
O148        C158   1.274       .  A
O149        C157   1.266       .  A
O150        C159   1.274       .  A
O151        C160   1.279       .  A
O152        C159   1.269       .  A
O153        C160   1.274       .  A
O154        C161   1.273       .  A
O155        C161   1.274       .  A
C156        C860   1.490       .  S
C157        C940   1.485       .  S
C158        C793   1.490       .  S
C159        C720   1.479       .  S
C160        C733   1.494       .  S
C161       C1200   1.488       .  S
Zn162       O166   1.980       .  S
Zn162       O167   2.046       .  S
Zn162       O171   2.052       .  S
Zn162       O178   2.070       .  S
Zn163       O166   1.945       .  S
Zn163       O168   2.015       .  S
Zn163       O170   1.993       .  S
Zn163       O174   1.998       .  S
Zn164       O166   1.950       .  S
Zn164       O169   2.005   1_556  S
Zn164       O172   2.014   1_556  S
Zn164       O175   2.002       .  S
Zn165       O166   1.955       .  S
Zn165       O173   2.011       .  S
Zn165       O176   2.040       .  S
Zn165       O177   2.001       .  S
O167        C179   1.278       .  A
O168        C180   1.272   1_556  A
O169        C181   1.273   1_554  A
O170        C179   1.272       .  A
O171        C181   1.277       .  A
O172        C180   1.271       .  A
O173        C182   1.272       .  A
O174        C183   1.272       .  A
O175        C182   1.272       .  A
O176        C183   1.276       .  A
O177        C184   1.273       .  A
O178        C184   1.280       .  A
C179       C1040   1.492       .  S
C180        C680   1.488       .  S
C181       C1173   1.489   1_556  S
C182        C660   1.463       .  S
C183        C693   1.490       .  S
C184        C740   1.499       .  S
Zn185       O189   1.967       .  S
Zn185       O190   2.017       .  S
Zn185       O194   2.042       .  S
Zn185       O201   2.018       .  S
Zn186       O189   1.965       .  S
Zn186       O191   2.053       .  S
Zn186       O193   2.002       .  S
Zn186       O197   2.014       .  S
Zn187       O189   1.935       .  S
Zn187       O192   2.009       .  S
Zn187       O195   1.995       .  S
Zn187       O198   1.977       .  S
Zn188       O189   1.985       .  S
Zn188       O196   2.072       .  S
Zn188       O199   2.066       .  S
Zn188       O200   2.049       .  S
O190        C202   1.274       .  A
O191        C203   1.276       .  A
O192        C204   1.272       .  A
O193        C202   1.273       .  A
O194        C204   1.275       .  A
O195        C203   1.271       .  A
O196        C205   1.280       .  A
O197        C206   1.274       .  A
O198        C205   1.270       .  A
O199        C206   1.280       .  A
O200        C207   1.278       .  A
O201        C207   1.275       .  A
C202        C580   1.476       .  S
C203        C900   1.483       .  S
C204        C613   1.489       .  S
C205        C553   1.484       .  S
C206        C593   1.502       .  S
C207        C640   1.492       .  S
Zn208       O212   1.957       .  S
Zn208       O213   1.999       .  S
Zn208       O217   2.043       .  S
Zn208       O224   2.007       .  S
Zn209       O212   1.986       .  S
Zn209       O214   2.063       .  S
Zn209       O216   2.050       .  S
Zn209       O220   2.085       .  S
Zn210       O212   1.944       .  S
Zn210       O215   2.015   1_554  S
Zn210       O218   1.983   1_554  S
Zn210       O221   2.002   1_554  S
Zn211       O212   1.946       .  S
Zn211       O219   2.017       .  S
Zn211       O222   1.992       .  S
Zn211       O223   2.009       .  S
O213        C225   1.272       .  A
O214        C226   1.280   1_554  A
O215        C227   1.272       .  A
O216        C225   1.279       .  A
O217        C227   1.275   1_554  A
O218        C226   1.271       .  A
O219        C228   1.273       .  A
O220        C229   1.281       .  A
O221        C228   1.271   1_556  A
O222        C229   1.271       .  A
O223        C230   1.273       .  A
O224        C230   1.273       .  A
C225        C513   1.493       .  S
C226        C540   1.485       .  S
C227       C1240   1.495       .  S
C228        C913   1.488   1_554  S
C229        C600   1.501       .  S
C230       C1133   1.475       .  S
Zn231       O235   1.933       .  S
Zn231       O236   2.006       .  S
Zn231       O240   1.979       .  S
Zn231       O247   1.995       .  S
Zn232       O235   1.975       .  S
Zn232       O237   2.026       .  S
Zn232       O239   2.069       .  S
Zn232       O243   2.019       .  S
Zn233       O235   1.963       .  S
Zn233       O238   2.035       .  S
Zn233       O241   2.011       .  S
Zn233       O244   2.034       .  S
Zn234       O235   1.958       .  S
Zn234       O242   2.019       .  S
Zn234       O245   1.981       .  S
Zn234       O246   2.014       .  S
O236        C248   1.271       .  A
O237        C249   1.276       .  A
O238        C250   1.275       .  A
O239        C248   1.277       .  A
O240        C250   1.271       .  A
O241        C249   1.275       .  A
O242        C251   1.272       .  A
O243        C252   1.274       .  A
O244        C251   1.273       .  A
O245        C252   1.274       .  A
O246        C253   1.271       .  A
O247        C253   1.271       .  A
C248       C1113   1.489       .  S
C249        C493   1.486       .  S
C250        C673   1.470       .  S
C251        C473   1.482       .  S
C252        C953   1.481       .  S
C253       C1053   1.482       .  S
Zn254       O258   1.959       .  S
Zn254       O259   2.003       .  S
Zn254       O263   2.026       .  S
Zn254       O270   2.017       .  S
Zn255       O258   1.971       .  S
Zn255       O260   2.035       .  S
Zn255       O262   2.035       .  S
Zn255       O266   2.036       .  S
Zn256       O258   1.952       .  S
Zn256       O261   2.012       .  S
Zn256       O264   2.017       .  S
Zn256       O267   2.012       .  S
Zn257       O258   1.958       .  S
Zn257       O265   2.028       .  S
Zn257       O268   2.011       .  S
Zn257       O269   2.010       .  S
O259        C271   1.273       .  A
O260        C272   1.276       .  A
O261        C273   1.273       .  A
O262        C271   1.277       .  A
O263        C273   1.274       .  A
O264        C272   1.274       .  A
O265        C274   1.274       .  A
O266        C275   1.276       .  A
O267        C274   1.273       .  A
O268        C275   1.274       .  A
O269        C276   1.273       .  A
O270        C276   1.273       .  A
C271        C500   1.489       .  S
C272        C453   1.494       .  S
C273        C700   1.488       .  S
C274        C533   1.488       .  S
C275       C1213   1.485       .  S
C276        C573   1.489       .  S
Zn277       O281   1.947       .  S
Zn277       O282   2.001       .  S
Zn277       O286   2.012       .  S
Zn277       O293   2.003       .  S
Zn278       O281   1.949       .  S
Zn278       O283   2.011       .  S
Zn278       O285   2.011       .  S
Zn278       O289   1.997       .  S
Zn279       O281   1.953       .  S
Zn279       O284   2.016       .  S
Zn279       O287   2.016       .  S
Zn279       O290   2.003       .  S
Zn280       O281   1.971       .  S
Zn280       O288   2.038       .  S
Zn280       O291   2.051       .  S
Zn280       O292   2.039       .  S
O282        C294   1.272       .  A
O283        C295   1.272       .  A
O284        C296   1.273       .  A
O285        C294   1.273       .  A
O286        C296   1.273       .  A
O287        C295   1.274       .  A
O288        C297   1.276       .  A
O289        C298   1.272       .  A
O290        C297   1.273       .  A
O291        C298   1.279       .  A
O292        C299   1.276       .  A
O293        C299   1.273       .  A
C294        C780   1.479       .  S
C295       C1320   1.487       .  S
C296        C840   1.483       .  S
C297        C420   1.480       .  S
C298        C440   1.489       .  S
C299        C560   1.489       .  S
Zn300       O304   1.971       .  S
Zn300       O305   2.031       .  S
Zn300       O309   2.052       .  S
Zn300       O316   2.047       .  S
Zn301       O304   1.975       .  S
Zn301       O306   2.027       .  S
Zn301       O308   2.028       .  S
Zn301       O312   2.061   1_554  S
Zn302       O304   1.962       .  S
Zn302       O307   2.006       .  S
Zn302       O310   2.004       .  S
Zn302       O313   2.035       .  S
Zn303       O304   1.930       .  S
Zn303       O311   1.986   1_554  S
Zn303       O314   1.993   1_554  S
Zn303       O315   1.984       .  S
O305        C317   1.276       .  A
O306        C318   1.276       .  A
O307        C319   1.273       .  A
O308        C317   1.276       .  A
O309        C319   1.278       .  A
O310        C318   1.273       .  A
O311        C320   1.270       .  A
O312        C321   1.276       .  A
O313        C320   1.274   1_554  A
O314        C321   1.271       .  A
O315        C322   1.270       .  A
O316        C322   1.276       .  A
C317        C480   1.475       .  S
C318        C400   1.483   1_554  S
C319        C433   1.491       .  S
C320       C1300   1.478       .  S
C321        C460   1.493       .  S
C322        C520   1.482       .  S
Zn323       O327   1.914       .  S
Zn323       O328   1.967       .  S
Zn323       O332   1.973       .  S
Zn323       O339   1.972       .  S
Zn324       O327   1.965       .  S
Zn324       O329   2.011       .  S
Zn324       O331   2.054       .  S
Zn324       O335   2.035       .  S
Zn325       O327   1.978       .  S
Zn325       O330   2.060       .  S
Zn325       O333   2.013       .  S
Zn325       O336   2.016       .  S
Zn326       O327   1.966       .  S
Zn326       O334   2.011       .  S
Zn326       O337   2.031       .  S
Zn326       O338   2.048       .  S
O328        C340   1.268   1_455  A
O329        C341   1.275       .  A
O330        C342   1.275       .  A
O331        C340   1.276   1_455  A
O332        C342   1.268       .  A
O333        C341   1.275       .  A
O334        C343   1.275       .  A
O335        C344   1.276       .  A
O336        C343   1.274       .  A
O337        C344   1.276       .  A
O338        C345   1.274       .  A
O339        C345   1.268       .  A
C340       C1000   1.483       .  S
C341        C380   1.481       .  S
C342        C760   1.488       .  S
C343        C653   1.476       .  S
C344        C633   1.498       .  S
C345        C713   1.483       .  S
Zn346       O350   1.961       .  S
Zn346       O351   2.029       .  S
Zn346       O355   1.991       .  S
Zn346       O362   2.028       .  S
Zn347       O350   1.942       .  S
Zn347       O352   1.999       .  S
Zn347       O354   1.987       .  S
Zn347       O358   2.009       .  S
Zn348       O350   1.977       .  S
Zn348       O353   2.038       .  S
Zn348       O356   2.047       .  S
Zn348       O359   2.046       .  S
Zn349       O350   1.940       .  S
Zn349       O357   1.992       .  S
Zn349       O360   2.010       .  S
Zn349       O361   1.994       .  S
O351        C363   1.274       .  A
O352        C364   1.273       .  A
O353        C365   1.278       .  A
O354        C363   1.270       .  A
O355        C365   1.273       .  A
O356        C364   1.276       .  A
O357        C366   1.272       .  A
O358        C367   1.271       .  A
O359        C366   1.277       .  A
O360        C367   1.272       .  A
O361        C368   1.270       .  A
O362        C368   1.274       .  A
C363       C1013   1.487       .  S
C364        C620   1.491   1_655  S
C365        C373   1.484       .  S
C366        C813   1.479       .  S
C367        C413   1.485       .  S
C368        C393   1.483       .  S
C369        C370   1.398       .  A
C369        C374   1.395       .  A
C369        F387   1.358       .  S
C370        C375   1.471   1_556  S
C370        C371   1.402       .  A
C371        C372   1.400       .  A
C371        F376   1.358   1_655  S
C372        C373   1.410       .  A
C372        F388   1.358   1_655  S
C373        C374   1.414       .  A
C374        F377   1.358       .  S
C375        C378   1.401       .  A
C375        C382   1.401   1_654  A
C378        C379   1.396       .  A
C378        F383   1.358       .  S
C379        C380   1.410   1_655  A
C379        F385   1.358       .  S
C380        C381   1.412       .  A
C381        C382   1.398   1_554  A
C381        F384   1.358       .  S
C382        F386   1.358       .  S
C389        C390   1.403       .  A
C389        C394   1.401       .  A
C389        F407   1.358       .  S
C390        C395   1.475       .  S
C390        C391   1.401       .  A
C391        C392   1.395       .  A
C391        F396   1.358       .  S
C392        C393   1.411       .  A
C392        F408   1.358       .  S
C393        C394   1.410       .  A
C394        F397   1.358       .  S
C395        C398   1.402       .  A
C395        C402   1.402       .  A
C398        C399   1.398       .  A
C398        F403   1.358       .  S
C399        C400   1.409       .  A
C399        F405   1.358       .  S
C400        C401   1.412       .  A
C401        C402   1.398       .  A
C401        F404   1.358   1_556  S
C402        F406   1.358       .  S
C409        C410   1.405       .  A
C409        C414   1.401       .  A
C409        F427   1.358       .  S
C410        C415   1.484       .  S
C410        C411   1.406       .  A
C411        C412   1.396       .  A
C411        F416   1.358       .  S
C412        C413   1.409       .  A
C412        F428   1.358       .  S
C413        C414   1.412       .  A
C414        F417   1.358       .  S
C415        C418   1.407       .  A
C415        C422   1.405       .  A
C418        C419   1.401       .  A
C418        F423   1.358       .  S
C419        C420   1.408       .  A
C419        F425   1.358       .  S
C420        C421   1.407       .  A
C421        C422   1.397       .  A
C421        F424   1.358       .  S
C422        F426   1.358       .  S
C429        C430   1.400       .  A
C429        C434   1.398       .  A
C429        F447   1.358       .  S
C430        C435   1.479       .  S
C430        C431   1.404       .  A
C431        C432   1.405       .  A
C431        F436   1.358       .  S
C432        C433   1.412       .  A
C432        F448   1.357       .  S
C433        C434   1.413       .  A
C434        F437   1.358       .  S
C435        C438   1.404       .  A
C435        C442   1.401       .  A
C438        C439   1.402       .  A
C438        F443   1.357       .  S
C439        C440   1.410       .  A
C439        F445   1.357       .  S
C440        C441   1.414       .  A
C441        C442   1.399       .  A
C441        F444   1.358       .  S
C442        F446   1.358       .  S
C449        C450   1.404       .  A
C449        C454   1.401       .  A
C449        F467   1.358       .  S
C450        C455   1.484       .  S
C450        C451   1.403       .  A
C451        C452   1.402       .  A
C451        F456   1.358       .  S
C452        C453   1.414       .  A
C452        F468   1.358       .  S
C453        C454   1.412       .  A
C454        F457   1.358       .  S
C455        C458   1.406       .  A
C455        C462   1.402       .  A
C458        C459   1.408       .  A
C458        F463   1.358       .  S
C459        C460   1.413       .  A
C459        F465   1.357       .  S
C460        C461   1.412       .  A
C461        C462   1.395       .  A
C461        F464   1.358       .  S
C462        F466   1.358       .  S
C469        C470   1.408       .  A
C469        C474   1.401       .  A
C469        F487   1.358       .  S
C470        C475   1.491       .  S
C470        C471   1.409       .  A
C471        C472   1.402       .  A
C471        F476   1.358       .  S
C472        C473   1.406       .  A
C472        F488   1.358       .  S
C473        C474   1.407       .  A
C474        F477   1.358       .  S
C475        C478   1.410       .  A
C475        C482   1.408       .  A
C478        C479   1.403       .  A
C478        F483   1.358       .  S
C479        C480   1.404       .  A
C479        F485   1.358       .  S
C480        C481   1.404       .  A
C481        C482   1.400       .  A
C481        F484   1.358       .  S
C482        F486   1.358       .  S
C489        C490   1.399       .  A
C489        C494   1.396       .  A
C489        F507   1.358       .  S
C490        C495   1.473       .  S
C490        C491   1.402       .  A
C491        C492   1.401       .  A
C491        F496   1.358       .  S
C492        C493   1.412       .  A
C492        F508   1.358       .  S
C493        C494   1.412       .  A
C494        F497   1.358       .  S
C495        C498   1.402       .  A
C495        C502   1.399       .  A
C498        C499   1.401       .  A
C498        F503   1.358       .  S
C499        C500   1.412       .  A
C499        F505   1.358       .  S
C500        C501   1.414       .  A
C501        C502   1.397       .  A
C501        F504   1.358       .  S
C502        F506   1.358       .  S
C509        C510   1.403       .  A
C509        C514   1.399       .  A
C509        F527   1.358       .  S
C510        C515   1.484       .  S
C510        C511   1.406       .  A
C511        C512   1.400       .  A
C511        F516   1.358       .  S
C512        C513   1.411       .  A
C512        F528   1.357       .  S
C513        C514   1.415       .  A
C514        F517   1.358       .  S
C515        C518   1.405       .  A
C515        C522   1.408       .  A
C518        C519   1.394       .  A
C518        F523   1.358       .  S
C519        C520   1.409       .  A
C519        F525   1.359       .  S
C520        C521   1.408       .  A
C521        C522   1.404       .  A
C521        F524   1.358       .  S
C522        F526   1.357       .  S
C529        C530   1.406       .  A
C529        C534   1.401       .  A
C529        F547   1.358       .  S
C530        C535   1.484       .  S
C530        C531   1.404       .  A
C531        C532   1.398       .  A
C531        F536   1.358       .  S
C532        C533   1.411       .  A
C532        F548   1.358       .  S
C533        C534   1.411       .  A
C534        F537   1.358       .  S
C535        C538   1.403       .  A
C535        C542   1.408       .  A
C538        C539   1.395       .  A
C538        F543   1.358       .  S
C539        C540   1.412       .  A
C539        F545   1.359       .  S
C540        C541   1.408       .  A
C541        C542   1.404       .  A
C541        F544   1.357       .  S
C542        F546   1.358       .  S
C549        C550   1.409       .  A
C549        C554   1.408       .  A
C549        F567   1.357       .  S
C550        C555   1.486   1_455  S
C550        C551   1.404       .  A
C551        C552   1.392       .  A
C551        F556   1.359       .  S
C552        C553   1.409       .  A
C552        F568   1.359       .  S
C553        C554   1.409       .  A
C554        F557   1.357       .  S
C555        C558   1.405       .  A
C555        C562   1.406       .  A
C558        C559   1.398       .  A
C558        F563   1.358       .  S
C559        C560   1.411       .  A
C559        F565   1.358       .  S
C560        C561   1.411       .  A
C561        C562   1.402       .  A
C561        F564   1.357       .  S
C562        F566   1.357       .  S
C569        C570   1.404       .  A
C569        C574   1.396       .  A
C569        F587   1.358       .  S
C570        C575   1.480       .  S
C570        C571   1.403       .  A
C571        C572   1.399       .  A
C571        F576   1.358       .  S
C572        C573   1.413       .  A
C572        F588   1.358       .  S
C573        C574   1.412       .  A
C574        F577   1.358       .  S
C575        C578   1.406       .  A
C575        C582   1.405       .  A
C578        C579   1.398       .  A
C578        F583   1.358       .  S
C579        C580   1.406       .  A
C579        F585   1.358       .  S
C580        C581   1.408       .  A
C581        C582   1.397       .  A
C581        F584   1.358       .  S
C582        F586   1.358       .  S
C589        C590   1.405       .  A
C589        C594   1.407       .  A
C589        F607   1.357       .  S
C590        C595   1.489       .  S
C590        C591   1.403       .  A
C591        C592   1.401       .  A
C591        F596   1.358       .  S
C592        C593   1.417       .  A
C592        F608   1.358       .  S
C593        C594   1.414       .  A
C594        F597   1.357       .  S
C595        C598   1.408       .  A
C595        C602   1.400       .  A
C598        C599   1.410       .  A
C598        F603   1.357       .  S
C599        C600   1.413       .  A
C599        F605   1.357       .  S
C600        C601   1.417       .  A
C601        C602   1.398       .  A
C601        F604   1.358       .  S
C602        F606   1.358       .  S
C609        C610   1.404       .  A
C609        C614   1.396       .  A
C609        F627   1.359       .  S
C610        C615   1.484       .  S
C610        C611   1.405       .  A
C611        C612   1.406       .  A
C611        F616   1.357       .  S
C612        C613   1.412       .  A
C612        F628   1.358       .  S
C613        C614   1.410       .  A
C614        F617   1.358       .  S
C615        C618   1.405       .  A
C615        C622   1.403       .  A
C618        C619   1.404       .  A
C618        F623   1.358       .  S
C619        C620   1.412       .  A
C619        F625   1.357       .  S
C620        C621   1.412       .  A
C621        C622   1.397       .  A
C621        F624   1.358   1_455  S
C622        F626   1.358       .  S
C629        C630   1.402       .  A
C629        C634   1.403       .  A
C629        F647   1.358       .  S
C630        C635   1.482       .  S
C630        C631   1.402       .  A
C631        C632   1.402       .  A
C631        F636   1.358       .  S
C632        C633   1.415       .  A
C632        F648   1.357       .  S
C633        C634   1.415       .  A
C634        F637   1.358       .  S
C635        C638   1.404       .  A
C635        C642   1.402       .  A
C638        C639   1.405       .  A
C638        F643   1.357       .  S
C639        C640   1.412       .  A
C639        F645   1.358       .  S
C640        C641   1.412       .  A
C641        C642   1.399       .  A
C641        F644   1.358       .  S
C642        F646   1.358       .  S
C649        C650   1.404       .  A
C649        C654   1.393       .  A
C649        F667   1.358       .  S
C650        C655   1.477       .  S
C650        C651   1.405       .  A
C651        C652   1.401       .  A
C651        F656   1.358   1_554  S
C652        C653   1.409       .  A
C652        F668   1.358       .  S
C653        C654   1.406       .  A
C654        F657   1.358       .  S
C655        C658   1.406       .  A
C655        C662   1.406   1_554  A
C658        C659   1.395       .  A
C658        F663   1.358       .  S
C659        C660   1.401   1_554  A
C659        F665   1.358       .  S
C660        C661   1.404       .  A
C661        C662   1.399       .  A
C661        F664   1.358       .  S
C662        F666   1.358       .  S
C669        C670   1.406       .  A
C669        C674   1.393       .  A
C669        F687   1.358       .  S
C670        C675   1.481       .  S
C670        C671   1.408       .  A
C671        C672   1.402       .  A
C671        F676   1.358       .  S
C672        C673   1.405       .  A
C672        F688   1.358       .  S
C673        C674   1.404       .  A
C674        F677   1.358       .  S
C675        C678   1.405       .  A
C675        C682   1.404       .  A
C678        C679   1.398       .  A
C678        F683   1.358       .  S
C679        C680   1.411       .  A
C679        F685   1.358       .  S
C680        C681   1.411       .  A
C681        C682   1.399       .  A
C681        F684   1.358       .  S
C682        F686   1.358       .  S
C689        C690   1.403       .  A
C689        C694   1.394       .  A
C689        F707   1.358       .  S
C690        C695   1.483       .  S
C690        C691   1.406       .  A
C691        C692   1.404       .  A
C691        F696   1.358       .  S
C692        C693   1.412       .  A
C692        F708   1.358       .  S
C693        C694   1.413       .  A
C694        F697   1.358       .  S
C695        C698   1.404       .  A
C695        C702   1.405       .  A
C698        C699   1.397       .  A
C698        F703   1.358       .  S
C699        C700   1.410       .  A
C699        F705   1.358       .  S
C700        C701   1.412       .  A
C701        C702   1.403       .  A
C701        F704   1.358       .  S
C702        F706   1.358       .  S
C709        C710   1.400       .  A
C709        C714   1.391       .  A
C709        F727   1.359       .  S
C710        C715   1.477       .  S
C710        C711   1.405       .  A
C711        C712   1.407       .  A
C711        F716   1.357       .  S
C712        C713   1.411       .  A
C712        F728   1.358       .  S
C713        C714   1.410       .  A
C714        F717   1.359       .  S
C715        C718   1.404       .  A
C715        C722   1.404       .  A
C718        C719   1.397       .  A
C718        F723   1.358       .  S
C719        C720   1.408       .  A
C719        F725   1.359       .  S
C720        C721   1.407       .  A
C721        C722   1.403       .  A
C721        F724   1.357       .  S
C722        F726   1.357       .  S
C729        C730   1.405       .  A
C729        C734   1.397       .  A
C729        F747   1.358       .  S
C730        C735   1.490       .  S
C730        C731   1.407       .  A
C731        C732   1.406       .  A
C731        F736   1.357       .  S
C732        C733   1.412       .  A
C732        F748   1.358       .  S
C733        C734   1.413       .  A
C734        F737   1.358       .  S
C735        C738   1.407       .  A
C735        C742   1.403       .  A
C738        C739   1.408       .  A
C738        F743   1.358       .  S
C739        C740   1.413       .  A
C739        F745   1.357       .  S
C740        C741   1.415       .  A
C741        C742   1.397       .  A
C741        F744   1.358       .  S
C742        F746   1.358       .  S
C749        C750   1.402       .  A
C749        C754   1.399       .  A
C749        F767   1.358       .  S
C750        C755   1.482   1_655  S
C750        C751   1.405   1_655  A
C751        C752   1.400   1_455  A
C751        F756   1.358       .  S
C752        C753   1.411       .  A
C752        F768   1.358   1_655  S
C753        C754   1.413       .  A
C754        F757   1.358       .  S
C755        C758   1.407       .  A
C755        C762   1.401       .  A
C758        C759   1.408       .  A
C758        F763   1.358   1_455  S
C759        C760   1.411       .  A
C759        F765   1.357       .  S
C760        C761   1.412       .  A
C761        C762   1.391       .  A
C761        F764   1.358       .  S
C762        F766   1.359       .  S
C769        C770   1.404       .  A
C769        C774   1.395   1_545  A
C769        F787   1.358       .  S
C770        C775   1.475       .  S
C770        C771   1.404       .  A
C771        C772   1.397       .  A
C771        F776   1.358       .  S
C772        C773   1.407   1_545  A
C772        F788   1.358       .  S
C773        C774   1.406       .  A
C774        F777   1.358       .  S
C775        C778   1.403       .  A
C775        C782   1.404       .  A
C778        C779   1.395       .  A
C778        F783   1.358       .  S
C779        C780   1.409       .  A
C779        F785   1.358       .  S
C780        C781   1.409       .  A
C781        C782   1.398       .  A
C781        F784   1.358       .  S
C782        F786   1.358       .  S
C789        C790   1.399       .  A
C789        C794   1.393       .  A
C789        F807   1.359       .  S
C790        C795   1.473       .  S
C790        C791   1.401       .  A
C791        C792   1.403       .  A
C791        F796   1.357       .  S
C792        C793   1.413       .  A
C792        F808   1.357       .  S
C793        C794   1.414       .  A
C794        F797   1.358       .  S
C795        C798   1.400       .  A
C795        C802   1.402       .  A
C798        C799   1.397       .  A
C798        F803   1.358       .  S
C799        C800   1.413       .  A
C799        F805   1.358   1_455  S
C800        C801   1.412       .  A
C801        C802   1.400       .  A
C801        F804   1.358       .  S
C802        F806   1.358       .  S
C809        C810   1.405       .  A
C809        C814   1.397       .  A
C809        F827   1.358       .  S
C810        C815   1.487   1_655  S
C810        C811   1.410   1_655  A
C811        C812   1.402       .  A
C811        F816   1.358       .  S
C812        C813   1.406   1_455  A
C812        F828   1.358       .  S
C813        C814   1.407       .  A
C814        F817   1.358       .  S
C815        C818   1.409   1_455  A
C815        C822   1.406       .  A
C818        C819   1.398       .  A
C818        F823   1.358       .  S
C819        C820   1.405   1_655  A
C819        F825   1.358       .  S
C820        C821   1.408       .  A
C821        C822   1.401       .  A
C821        F824   1.358       .  S
C822        F826   1.358       .  S
C829        C830   1.406       .  A
C829        C834   1.397       .  A
C829        F847   1.358       .  S
C830        C835   1.482       .  S
C830        C831   1.407       .  A
C831        C832   1.399       .  A
C831        F836   1.358       .  S
C832        C833   1.407       .  A
C832        F848   1.358       .  S
C833        C834   1.408       .  A
C834        F837   1.358       .  S
C835        C838   1.405       .  A
C835        C842   1.406       .  A
C838        C839   1.400       .  A
C838        F843   1.358       .  S
C839        C840   1.410       .  A
C839        F845   1.358       .  S
C840        C841   1.409       .  A
C841        C842   1.396       .  A
C841        F844   1.358       .  S
C842        F846   1.358       .  S
C849        C850   1.403       .  A
C849        C854   1.402       .  A
C849        F867   1.358       .  S
C850        C855   1.481       .  S
C850        C851   1.402       .  A
C851        C852   1.396   1_565  A
C851        F856   1.358       .  S
C852        C853   1.413       .  A
C852        F868   1.358       .  S
C853        C854   1.413   1_545  A
C854        F857   1.358   1_565  S
C855        C858   1.404       .  A
C855        C862   1.402       .  A
C858        C859   1.402       .  A
C858        F863   1.358       .  S
C859        C860   1.412       .  A
C859        F865   1.357       .  S
C860        C861   1.412       .  A
C861        C862   1.398       .  A
C861        F864   1.358       .  S
C862        F866   1.358       .  S
C869        C870   1.408       .  A
C869        C874   1.403       .  A
C869        F887   1.358       .  S
C870        C875   1.489   1_546  S
C870        C871   1.406   1_655  A
C871        C872   1.401       .  A
C871        F876   1.358   1_556  S
C872        C873   1.409       .  A
C872        F888   1.358       .  S
C873        C874   1.408   1_455  A
C874        F877   1.358       .  S
C875        C878   1.408       .  A
C875        C882   1.404   1_565  A
C878        C879   1.403       .  A
C878        F883   1.358   1_655  S
C879        C880   1.410       .  A
C879        F885   1.358   1_655  S
C880        C881   1.412       .  A
C881        C882   1.399   1_565  A
C881        F884   1.358       .  S
C882        F886   1.358       .  S
C889        C890   1.404       .  A
C889        C894   1.401       .  A
C889        F907   1.358       .  S
C890        C895   1.482       .  S
C890        C891   1.403       .  A
C891        C892   1.400       .  A
C891        F896   1.358       .  S
C892        C893   1.413       .  A
C892        F908   1.358       .  S
C893        C894   1.413       .  A
C894        F897   1.358       .  S
C895        C898   1.407       .  A
C895        C902   1.403       .  A
C898        C899   1.406       .  A
C898        F903   1.358       .  S
C899        C900   1.409       .  A
C899        F905   1.357       .  S
C900        C901   1.408       .  A
C901        C902   1.395       .  A
C901        F904   1.358       .  S
C902        F906   1.358       .  S
C909        C910   1.401   1_554  A
C909        C914   1.399       .  A
C909        F927   1.358       .  S
C910        C915   1.472       .  S
C910        C911   1.400       .  A
C911        C912   1.396       .  A
C911        F916   1.358       .  S
C912        C913   1.413       .  A
C912        F928   1.358       .  S
C913        C914   1.413   1_556  A
C914        F917   1.358       .  S
C915        C918   1.401       .  A
C915        C922   1.403       .  A
C918        C919   1.396       .  A
C918        F923   1.358       .  S
C919        C920   1.410       .  A
C919        F925   1.358       .  S
C920        C921   1.408       .  A
C921        C922   1.399       .  A
C921        F924   1.358       .  S
C922        F926   1.358       .  S
C929        C930   1.405       .  A
C929        C934   1.402       .  A
C929        F947   1.357       .  S
C930        C935   1.482       .  S
C930        C931   1.404       .  A
C931        C932   1.393       .  A
C931        F936   1.359       .  S
C932        C933   1.414       .  A
C932        F948   1.359       .  S
C933        C934   1.411       .  A
C934        F937   1.357       .  S
C935        C938   1.409   1_655  A
C935        C942   1.402   1_655  A
C938        C939   1.407       .  A
C938        F943   1.357   1_455  S
C939        C940   1.408       .  A
C939        F945   1.357       .  S
C940        C941   1.413       .  A
C941        C942   1.387       .  A
C941        F944   1.359       .  S
C942        F946   1.359   1_455  S
C949        C950   1.400       .  A
C949        C954   1.396       .  A
C949        F967   1.358       .  S
C950        C955   1.467       .  S
C950        C951   1.400       .  A
C951        C952   1.391       .  A
C951        F956   1.358       .  S
C952        C953   1.412       .  A
C952        F968   1.359       .  S
C953        C954   1.413       .  A
C954        F957   1.357       .  S
C955        C958   1.402       .  A
C955        C962   1.400       .  A
C958        C959   1.398       .  A
C958        F963   1.358       .  S
C959        C960   1.409       .  A
C959        F965   1.358       .  S
C960        C961   1.409       .  A
C961        C962   1.389       .  A
C961        F964   1.358       .  S
C962        F966   1.359       .  S
C969        C970   1.408       .  A
C969        C974   1.401       .  A
C969        F987   1.358       .  S
C970        C975   1.493       .  S
C970        C971   1.410       .  A
C971        C972   1.402       .  A
C971        F976   1.358       .  S
C972        C973   1.408       .  A
C972        F988   1.358       .  S
C973        C974   1.409       .  A
C974        F977   1.358       .  S
C975        C978   1.411       .  A
C975        C982   1.404       .  A
C978        C979   1.408       .  A
C978        F983   1.358       .  S
C979        C980   1.409       .  A
C979        F985   1.357       .  S
C980        C981   1.413       .  A
C981        C982   1.394       .  A
C981        F984   1.359       .  S
C982        F986   1.358       .  S
C989        C990   1.405       .  A
C989        C994   1.401       .  A
C989       F1007   1.358       .  S
C990        C995   1.484       .  S
C990        C991   1.404       .  A
C991        C992   1.397       .  A
C991        F996   1.358       .  S
C992        C993   1.412       .  A
C992       F1008   1.358       .  S
C993        C994   1.411       .  A
C994        F997   1.358       .  S
C995        C998   1.408       .  A
C995       C1002   1.404       .  A
C998        C999   1.404       .  A
C998       F1003   1.357       .  S
C999       C1000   1.408       .  A
C999       F1005   1.357       .  S
C1000      C1001   1.411       .  A
C1001      C1002   1.392       .  A
C1001      F1004   1.359       .  S
C1002      F1006   1.359       .  S
C1009      C1010   1.402       .  A
C1009      C1014   1.402       .  A
C1009      F1027   1.358       .  S
C1010      C1015   1.472       .  S
C1010      C1011   1.399       .  A
C1011      C1012   1.393       .  A
C1011      F1016   1.358       .  S
C1012      C1013   1.413       .  A
C1012      F1028   1.358       .  S
C1013      C1014   1.413       .  A
C1014      F1017   1.358       .  S
C1015      C1018   1.400       .  A
C1015      C1022   1.402       .  A
C1018      C1019   1.393       .  A
C1018      F1023   1.358       .  S
C1019      C1020   1.411       .  A
C1019      F1025   1.358       .  S
C1020      C1021   1.412       .  A
C1021      C1022   1.402       .  A
C1021      F1024   1.358       .  S
C1022      F1026   1.358       .  S
C1029      C1030   1.405       .  A
C1029      C1034   1.396       .  A
C1029      F1047   1.358       .  S
C1030      C1035   1.487       .  S
C1030      C1031   1.408       .  A
C1031      C1032   1.403       .  A
C1031      F1036   1.358       .  S
C1032      C1033   1.410       .  A
C1032      F1048   1.358       .  S
C1033      C1034   1.410       .  A
C1034      F1037   1.358       .  S
C1035      C1038   1.407       .  A
C1035      C1042   1.404       .  A
C1038      C1039   1.401       .  A
C1038      F1043   1.358       .  S
C1039      C1040   1.410       .  A
C1039      F1045   1.358       .  S
C1040      C1041   1.415       .  A
C1041      C1042   1.398       .  A
C1041      F1044   1.358       .  S
C1042      F1046   1.358       .  S
C1049      C1050   1.403       .  A
C1049      C1054   1.393       .  A
C1049      F1067   1.358       .  S
C1050      C1055   1.477       .  S
C1050      C1051   1.404       .  A
C1051      C1052   1.400       .  A
C1051      F1056   1.358       .  S
C1052      C1053   1.411       .  A
C1052      F1068   1.358       .  S
C1053      C1054   1.410       .  A
C1054      F1057   1.358       .  S
C1055      C1058   1.402       .  A
C1055      C1062   1.405       .  A
C1058      C1059   1.395       .  A
C1058      F1063   1.358       .  S
C1059      C1060   1.411       .  A
C1059      F1065   1.358       .  S
C1060      C1061   1.411       .  A
C1061      C1062   1.400       .  A
C1061      F1064   1.358   1_554  S
C1062      F1066   1.358       .  S
C1069      C1070   1.402       .  A
C1069      C1074   1.398   1_554  A
C1069      F1087   1.358   1_554  S
C1070      C1075   1.471       .  S
C1070      C1071   1.402       .  A
C1071      C1072   1.395       .  A
C1071      F1076   1.358       .  S
C1072      C1073   1.408       .  A
C1072      F1088   1.358       .  S
C1073      C1074   1.409   1_554  A
C1074      F1077   1.358       .  S
C1075      C1078   1.403       .  A
C1075      C1082   1.403       .  A
C1078      C1079   1.398       .  A
C1078      F1083   1.358       .  S
C1079      C1080   1.406       .  A
C1079      F1085   1.358       .  S
C1080      C1081   1.406       .  A
C1081      C1082   1.396       .  A
C1081      F1084   1.358       .  S
C1082      F1086   1.358       .  S
C1089      C1090   1.407       .  A
C1089      C1094   1.401       .  A
C1089      F1107   1.358       .  S
C1090      C1095   1.494       .  S
C1090      C1091   1.410       .  A
C1091      C1092   1.402       .  A
C1091      F1096   1.358       .  S
C1092      C1093   1.409       .  A
C1092      F1108   1.358       .  S
C1093      C1094   1.412       .  A
C1094      F1097   1.358       .  S
C1095      C1098   1.411       .  A
C1095      C1102   1.407       .  A
C1098      C1099   1.404       .  A
C1098      F1103   1.358       .  S
C1099      C1100   1.407       .  A
C1099      F1105   1.358       .  S
C1100      C1101   1.410       .  A
C1101      C1102   1.399       .  A
C1101      F1104   1.358       .  S
C1102      F1106   1.358       .  S
C1109      C1110   1.402       .  A
C1109      C1114   1.397       .  A
C1109      F1127   1.358       .  S
C1110      C1115   1.486       .  S
C1110      C1111   1.408       .  A
C1111      C1112   1.409       .  A
C1111      F1116   1.358       .  S
C1112      C1113   1.410       .  A
C1112      F1128   1.357       .  S
C1113      C1114   1.409       .  A
C1114      F1117   1.358       .  S
C1115      C1118   1.402       .  A
C1115      C1122   1.406       .  A
C1118      C1119   1.400       .  A
C1118      F1123   1.358       .  S
C1119      C1120   1.415       .  A
C1119      F1125   1.358       .  S
C1120      C1121   1.412       .  A
C1121      C1122   1.406       .  A
C1121      F1124   1.357       .  S
C1122      F1126   1.357       .  S
C1129      C1130   1.404       .  A
C1129      C1134   1.397       .  A
C1129      F1147   1.358       .  S
C1130      C1135   1.475       .  S
C1130      C1131   1.404       .  A
C1131      C1132   1.397       .  A
C1131      F1136   1.358       .  S
C1132      C1133   1.407       .  A
C1132      F1148   1.358       .  S
C1133      C1134   1.408       .  A
C1134      F1137   1.358       .  S
C1135      C1138   1.403       .  A
C1135      C1142   1.404       .  A
C1138      C1139   1.399       .  A
C1138      F1143   1.358       .  S
C1139      C1140   1.411   1_545  A
C1139      F1145   1.358       .  S
C1140      C1141   1.409       .  A
C1141      C1142   1.395   1_565  A
C1141      F1144   1.358       .  S
C1142      F1146   1.358       .  S
C1149      C1150   1.409       .  A
C1149      C1154   1.399       .  A
C1149      F1167   1.357       .  S
C1150      C1155   1.492       .  S
C1150      C1151   1.410       .  A
C1151      C1152   1.401       .  A
C1151      F1156   1.358       .  S
C1152      C1153   1.407       .  A
C1152      F1168   1.358       .  S
C1153      C1154   1.405       .  A
C1154      F1157   1.358       .  S
C1155      C1158   1.409       .  A
C1155      C1162   1.406       .  A
C1158      C1159   1.405       .  A
C1158      F1163   1.358       .  S
C1159      C1160   1.411       .  A
C1159      F1165   1.357       .  S
C1160      C1161   1.415       .  A
C1161      C1162   1.397       .  A
C1161      F1164   1.358       .  S
C1162      F1166   1.358       .  S
C1169      C1170   1.408       .  A
C1169      C1174   1.407       .  A
C1169      F1187   1.357       .  S
C1170      C1175   1.489       .  S
C1170      C1171   1.405       .  A
C1171      C1172   1.396       .  A
C1171      F1176   1.358       .  S
C1172      C1173   1.410       .  A
C1172      F1188   1.358       .  S
C1173      C1174   1.410       .  A
C1174      F1177   1.357   1_554  S
C1175      C1178   1.406       .  A
C1175      C1182   1.407       .  A
C1178      C1179   1.399       .  A
C1178      F1183   1.358       .  S
C1179      C1180   1.409       .  A
C1179      F1185   1.358       .  S
C1180      C1181   1.411       .  A
C1181      C1182   1.404       .  A
C1181      F1184   1.358       .  S
C1182      F1186   1.358       .  S
C1189      C1190   1.406       .  A
C1189      C1194   1.401       .  A
C1189      F1207   1.358       .  S
C1190      C1195   1.482       .  S
C1190      C1191   1.405       .  A
C1191      C1192   1.394       .  A
C1191      F1196   1.358       .  S
C1192      C1193   1.409       .  A
C1192      F1208   1.358       .  S
C1193      C1194   1.409       .  A
C1194      F1197   1.358       .  S
C1195      C1198   1.405       .  A
C1195      C1202   1.404       .  A
C1198      C1199   1.401       .  A
C1198      F1203   1.358       .  S
C1199      C1200   1.413       .  A
C1199      F1205   1.358       .  S
C1200      C1201   1.412       .  A
C1201      C1202   1.394       .  A
C1201      F1204   1.358       .  S
C1202      F1206   1.358       .  S
C1209      C1210   1.404       .  A
C1209      C1214   1.400       .  A
C1209      F1227   1.358       .  S
C1210      C1215   1.477       .  S
C1210      C1211   1.401       .  A
C1211      C1212   1.399       .  A
C1211      F1216   1.358       .  S
C1212      C1213   1.411       .  A
C1212      F1228   1.358       .  S
C1213      C1214   1.410       .  A
C1214      F1217   1.358       .  S
C1215      C1218   1.400       .  A
C1215      C1222   1.403       .  A
C1218      C1219   1.393       .  A
C1218      F1223   1.359       .  S
C1219      C1220   1.414       .  A
C1219      F1225   1.358       .  S
C1220      C1221   1.413       .  A
C1221      C1222   1.405       .  A
C1221      F1224   1.357       .  S
C1222      F1226   1.357       .  S
C1229      C1230   1.406       .  A
C1229      C1234   1.409       .  A
C1229      F1247   1.357       .  S
C1230      C1235   1.482       .  S
C1230      C1231   1.401       .  A
C1231      C1232   1.395       .  A
C1231      F1236   1.358       .  S
C1232      C1233   1.409       .  A
C1232      F1248   1.358       .  S
C1233      C1234   1.411       .  A
C1234      F1237   1.358       .  S
C1235      C1238   1.404       .  A
C1235      C1242   1.402       .  A
C1238      C1239   1.404       .  A
C1238      F1243   1.358       .  S
C1239      C1240   1.413       .  A
C1239      F1245   1.358   1_556  S
C1240      C1241   1.413       .  A
C1241      C1242   1.400       .  A
C1241      F1244   1.358       .  S
C1242      F1246   1.358       .  S
C1249      C1250   1.406       .  A
C1249      C1254   1.393       .  A
C1249      F1267   1.358       .  S
C1250      C1255   1.481       .  S
C1250      C1251   1.407       .  A
C1251      C1252   1.399   1_565  A
C1251      F1256   1.358       .  S
C1252      C1253   1.408       .  A
C1252      F1268   1.358       .  S
C1253      C1254   1.404   1_545  A
C1254      F1257   1.358       .  S
C1255      C1258   1.404       .  A
C1255      C1262   1.405       .  A
C1258      C1259   1.398       .  A
C1258      F1263   1.358       .  S
C1259      C1260   1.412       .  A
C1259      F1265   1.358       .  S
C1260      C1261   1.411       .  A
C1261      C1262   1.394       .  A
C1261      F1264   1.358       .  S
C1262      F1266   1.359       .  S
C1269      C1270   1.405       .  A
C1269      C1274   1.408       .  A
C1269      F1287   1.358       .  S
C1270      C1275   1.489   1_565  S
C1270      C1271   1.402       .  A
C1271      C1272   1.403       .  A
C1271      F1276   1.358   1_565  S
C1272      C1273   1.417       .  A
C1272      F1288   1.358       .  S
C1273      C1274   1.414       .  A
C1274      F1277   1.357       .  S
C1275      C1278   1.405       .  A
C1275      C1282   1.402       .  A
C1278      C1279   1.407       .  A
C1278      F1283   1.358       .  S
C1279      C1280   1.415       .  A
C1279      F1285   1.358       .  S
C1280      C1281   1.415       .  A
C1281      C1282   1.403       .  A
C1281      F1284   1.358       .  S
C1282      F1286   1.358   1_545  S
C1289      C1290   1.404       .  A
C1289      C1294   1.404       .  A
C1289      F1307   1.358       .  S
C1290      C1295   1.473       .  S
C1290      C1291   1.403       .  A
C1291      C1292   1.394       .  A
C1291      F1296   1.358       .  S
C1292      C1293   1.404       .  A
C1292      F1308   1.358       .  S
C1293      C1294   1.408       .  A
C1294      F1297   1.358       .  S
C1295      C1298   1.404       .  A
C1295      C1302   1.401       .  A
C1298      C1299   1.404       .  A
C1298      F1303   1.357       .  S
C1299      C1300   1.409       .  A
C1299      F1305   1.357       .  S
C1300      C1301   1.408       .  A
C1301      C1302   1.392       .  A
C1301      F1304   1.359       .  S
C1302      F1306   1.358       .  S
C1309      C1310   1.403       .  A
C1309      C1314   1.396       .  A
C1309      F1327   1.358       .  S
C1310      C1315   1.480       .  S
C1310      C1311   1.405       .  A
C1311      C1312   1.402       .  A
C1311      F1316   1.358       .  S
C1312      C1313   1.410       .  A
C1312      F1328   1.358       .  S
C1313      C1314   1.409       .  A
C1314      F1317   1.358       .  S
C1315      C1318   1.402       .  A
C1315      C1322   1.405       .  A
C1318      C1319   1.399       .  A
C1318      F1323   1.358       .  S
C1319      C1320   1.413       .  A
C1319      F1325   1.358       .  S
C1320      C1321   1.410       .  A
C1321      C1322   1.398       .  A
C1321      F1324   1.358       .  S
C1322      F1326   1.358       .  S
