geometry optimzed in LAMMPS
_audit_creation_date              2020-11-30 
_audit_creation_method            'lammps2cif' 
_symmetry_space_group_name_H-M    'P1' 
_symmetry_Int_Tables_number       1 
_symmetry_cell_setting            triclinic 
loop_ 
_symmetry_equiv_pos_as_xyz 
  x,y,z 
_cell_length_a                    45.995153968997975 
_cell_length_b                    45.94508267776317 
_cell_length_c                    43.737207331868674 
_cell_angle_alpha                 89.7147496909094 
_cell_angle_beta                  89.87912061699959 
_cell_angle_gamma                 90.03040991045025 
loop_ 
_atom_site_label 
_atom_site_type_symbol 
_atom_site_fract_x 
_atom_site_fract_y 
_atom_site_fract_z 
_atom_site_charge 
Fe1        Fe  0.45820388  0.47064999  0.29732502     1.65780
Fe2        Fe  0.41420655  0.45129167  0.24122455     1.73250
Fe3        Fe  0.43632391  0.02038630  0.24574912     1.54410
O4          O  0.43499383  0.03730411  0.29078704    -0.83150
O5          O  0.43479666  0.45843226  0.20070193    -0.81450
O6          O  0.43230770  0.49807552  0.32124486    -0.85650
O7          O  0.48895367  0.50310788  0.29057051    -0.80510
O8          O  0.39135710  0.02267216  0.24727682    -0.82280
O9          O  0.44578111  0.41935673  0.25053661    -0.85030
C10         C  0.49860152  0.01213628  0.26508207     0.95740
C11         C  0.42738507  0.02474616  0.31581733     1.03180
O12         O  0.43650328  0.48086801  0.26084406    -1.14010
O13         O  0.39287999  0.44422628  0.28151024    -0.76440
O14         O  0.43146498  0.43612649  0.30999075    -0.79930
O15         O  0.48143139  0.01893070  0.24348160    -0.80620
C16         C  0.40543250  0.43050433  0.30272062     0.94640
O17         O  0.48312050  0.44212991  0.27262976    -0.78580
O18         O  0.38002983  0.47890307  0.22926579    -0.83770
C19         C  0.43819118  0.98221621  0.18635866     0.97260
C20         C  0.37283183  0.00439879  0.23765290     1.03180
O21         O  0.43613140  0.00704891  0.19942345    -0.79410
C22         C  0.47229906  0.42010587  0.25925410     1.01480
Fe23       Fe  0.22081496  0.44694941  0.27067146     1.65780
Fe24       Fe  0.16366803  0.44675629  0.22342111     1.73250
Fe25       Fe  0.18471159  0.00964066  0.25625842     1.54410
O26         O  0.19140135  0.00575730  0.30374088    -0.83150
O27         O  0.17364871  0.47287450  0.18667169    -0.81450
O28         O  0.20651544  0.46013601  0.31198456    -0.85650
O29         O  0.25050065  0.48008520  0.26814752    -0.80510
O30         O  0.14081541  0.00561922  0.26624046    -0.82280
O31         O  0.19541565  0.41574849  0.21078024    -0.85030
C32         C  0.25131257  0.00408831  0.25398810     0.95740
C33         C  0.19585820  0.48383075  0.32125718     1.03180
O34         O  0.18985987  0.46820186  0.24989202    -1.14010
O35         O  0.15150165  0.42197014  0.26028561    -0.76440
O36         O  0.19546176  0.41018010  0.27726517    -0.79930
O37         O  0.22848411  0.01768503  0.24586726    -0.80620
C38         C  0.16801783  0.40715732  0.27752788     0.94640
O39         O  0.23664846  0.43251411  0.22987745    -0.78580
O40         O  0.12781299  0.47305728  0.23154273    -0.83770
C41         C  0.17147891  0.00056297  0.18613363     0.97260
C42         C  0.12151238  0.99293655  0.25046869     1.03180
O43         O  0.17470656  0.01631814  0.20998038    -0.79410
C44         C  0.22303471  0.41468500  0.21333226     1.01480
Fe45       Fe  0.43038200  0.33013986  0.52201040     1.65780
Fe46       Fe  0.43139244  0.27274919  0.47541601     1.73250
Fe47       Fe  0.36814915  0.29350937  0.50758999     1.54420
O48         O  0.37157367  0.30058460  0.55508886    -0.83150
O49         O  0.40585625  0.28251188  0.43854396    -0.81450
O50         O  0.41717917  0.31556064  0.56328355    -0.85650
O51         O  0.39695501  0.35946817  0.51963640    -0.80510
O52         O  0.37219447  0.24964687  0.51813412    -0.82280
O53         O  0.46211350  0.30471925  0.46260890    -0.85030
C54         C  0.37357650  0.36017582  0.50457938     0.95740
C55         C  0.39347604  0.30478752  0.57255636     1.03180
O56         O  0.40955251  0.29888793  0.50147946    -1.14010
O57         O  0.45576662  0.26096827  0.51247067    -0.76440
O58         O  0.46740525  0.30524825  0.52853932    -0.79930
O59         O  0.36027433  0.33722636  0.49635405    -0.80620
C60         C  0.47062799  0.27780615  0.52915610     0.94640
O61         O  0.44479114  0.34602458  0.48105344    -0.78580
O62         O  0.40519333  0.23677566  0.48366723    -0.83770
C63         C  0.37829824  0.27972467  0.43774496     0.97260
C64         C  0.38509892  0.23039071  0.50245559     1.03180
O65         O  0.36209949  0.28290978  0.46137546    -0.79410
C66         C  0.46282165  0.33240498  0.46466591     1.01480
Fe67       Fe  0.40978025  0.06608202  0.54554063     1.65780
Fe68       Fe  0.42754583  0.02346586  0.48769160     1.73250
Fe69       Fe  0.35859534  0.04509118  0.49564399     1.54420
O70         O  0.34296565  0.04316360  0.54127971    -0.83150
O71         O  0.41894709  0.04515638  0.44814196    -0.81450
O72         O  0.38298041  0.03972803  0.57007687    -0.85650
O73         O  0.37730111  0.09709098  0.54050370    -0.80510
O74         O  0.35653661  0.50011488  0.49672624    -0.82280
O75         O  0.45974709  0.05502683  0.49635367    -0.85030
C76         C  0.36723658  0.10708381  0.51562147     0.95740
C77         C  0.35614502  0.03509872  0.56570127     1.03180
O78         O  0.39853599  0.04509127  0.50912813    -1.14010
O79         O  0.43633277  0.00094251  0.52685108    -0.76440
O80         O  0.44436600  0.03879528  0.55647696    -0.79930
O81         O  0.35988155  0.09024336  0.49401218    -0.80620
C82         C  0.44965834  0.01280057  0.54865641     0.94640
O83         O  0.43758920  0.09166174  0.52034183    -0.78580
O84         O  0.39953556  0.48931886  0.47630088    -0.83770
C85         C  0.39476103  0.04821592  0.43475175     0.97260
C86         C  0.37448259  0.48178973  0.48602574     1.03180
O87         O  0.37039517  0.04550818  0.44875039    -0.79410
C88         C  0.45916718  0.08136796  0.50572263     1.01480
Fe89       Fe  0.21045467  0.21764266  0.79459852     1.65780
Fe90       Fe  0.16709007  0.20025891  0.73724904     1.73250
Fe91       Fe  0.18855857  0.26927995  0.74521570     1.54410
O92         O  0.18735550  0.28439823  0.79096595    -0.83150
O93         O  0.18799472  0.20940817  0.69737596    -0.81450
O94         O  0.18428500  0.24401682  0.81958863    -0.85650
O95         O  0.24113875  0.25046116  0.78936156    -0.80510
O96         O  0.14366330  0.27113020  0.74699665    -0.82280
O97         O  0.19897807  0.16819418  0.74522483    -0.85030
C98         C  0.25077204  0.26093953  0.76445755     0.95740
C99         C  0.17951961  0.27091114  0.81537427     1.03180
O100        O  0.18891625  0.22916246  0.75850354    -1.14010
O101        O  0.14529157  0.19086120  0.77668983    -0.76440
O102        O  0.18359003  0.18267255  0.80572839    -0.79930
O103        O  0.23366833  0.26824757  0.74296223    -0.80620
C104        C  0.15750175  0.17738687  0.79830287     0.94640
O105        O  0.23580990  0.19028217  0.76891270    -0.78580
O106        O  0.13262360  0.22824008  0.72660013    -0.83770
C107        C  0.19042472  0.23378317  0.68401598     0.97260
C108        C  0.12522518  0.25322925  0.73647192     1.03180
O109        O  0.18804386  0.25800116  0.69822534    -0.79410
C110        C  0.22542631  0.16881810  0.75425433     1.01480
Fe111      Fe  0.47297525  0.19911025  0.77192966     1.65780
Fe112      Fe  0.41658388  0.19912071  0.72384721     1.73250
Fe113      Fe  0.43717009  0.26175588  0.75718109     1.54420
O114        O  0.44403669  0.25768841  0.80472803    -0.83150
O115        O  0.42667815  0.22557203  0.68748460    -0.81450
O116        O  0.45730506  0.21146925  0.81290338    -0.85650
O117        O  0.50224190  0.23277918  0.77121150    -0.80510
O118        O  0.39324406  0.25767320  0.76719187    -0.82280
O119        O  0.44888671  0.16877877  0.71119677    -0.85030
C120        C  0.50358022  0.25575419  0.75531459     0.95740
C121        C  0.44722329  0.23542468  0.82213411     1.03180
O122        O  0.44227223  0.22037928  0.75080299    -1.14010
O123        O  0.40422969  0.17372446  0.76016069    -0.76440
O124        O  0.44814990  0.16179244  0.77702578    -0.79930
O125        O  0.48097238  0.26916912  0.74621552    -0.80620
C126        C  0.42075757  0.15844154  0.77690509     0.94640
O127        O  0.48979416  0.18554108  0.73120731    -0.78580
O128        O  0.38059904  0.22516675  0.73218709    -0.83770
C129        C  0.42370480  0.25315537  0.68714288     0.97260
C130        C  0.37410195  0.24492963  0.75120188     1.03180
O131        O  0.42677997  0.26881167  0.71105856    -0.79410
C132        C  0.47648839  0.16785097  0.71417239     1.01480
Fe133      Fe  0.15985758  0.31615809  0.04543585     1.65780
Fe134      Fe  0.17843703  0.27360521  0.98782846     1.73250
Fe135      Fe  0.10936039  0.29467199  0.99512801     1.54410
O136        O  0.09315498  0.29379805  0.04054632    -0.83150
O137        O  0.17004080  0.29526681  0.94818430    -0.81450
O138        O  0.13277551  0.29003092  0.06988350    -0.85650
O139        O  0.12732217  0.34701070  0.03956568    -0.80510
O140        O  0.10760257  0.24973644  0.99705480    -0.82280
O141        O  0.21042807  0.30533830  0.99677137    -0.85030
C142        C  0.11753141  0.35677046  0.01443778     0.95740
C143        C  0.10584114  0.28618702  0.06539519     1.03180
O144        O  0.14913434  0.29499572  0.00902220    -1.14010
O145        O  0.18700329  0.25112912  0.02703795    -0.76440
O146        O  0.19445943  0.28893652  0.05692844    -0.79930
O147        O  0.11061205  0.33976073  0.99279950    -0.80620
C148        C  0.19999395  0.26298102  0.04906574     0.94640
O149        O  0.18773761  0.34176600  0.02050634    -0.78580
O150        O  0.15056429  0.23933032  0.97627079    -0.83770
C151        C  0.14592372  0.29696495  0.93443174     0.97260
C152        C  0.12563206  0.23156645  0.98619790     1.03180
O153        O  0.12154503  0.29400179  0.94833928    -0.79410
C154        C  0.20951833  0.33167948  0.00611521     1.01480
Fe155      Fe  0.18038519  0.07919722  0.02061187     1.65780
Fe156      Fe  0.18075953  0.02231287  0.97328077     1.73250
Fe157      Fe  0.11792214  0.04315250  0.00628428     1.54410
O158        O  0.12171537  0.05000187  0.05378573    -0.83150
O159        O  0.15474014  0.03220919  0.93664832    -0.81450
O160        O  0.16768574  0.06385132  0.06181087    -0.85650
O161        O  0.14692920  0.10854350  0.01939097    -0.80510
O162        O  0.12189329  0.49924765  0.01656151    -0.82280
O163        O  0.21140577  0.05443315  0.96051431    -0.85030
C164        C  0.12382287  0.10968898  0.00392013     0.95740
C165        C  0.14384652  0.05340146  0.07112637     1.03180
O166        O  0.15927334  0.04830475  0.99981597    -1.14010
O167        O  0.20549115  0.01019165  0.01005253    -0.76440
O168        O  0.21743810  0.05434461  0.02610059    -0.79930
O169        O  0.11041157  0.08696912  0.99521662    -0.80620
C170        C  0.22036910  0.02690187  0.02687145     0.94640
O171        O  0.19437255  0.09560239  0.97968239    -0.78580
O172        O  0.15457407  0.48640098  0.98170456    -0.83770
C173        C  0.12714141  0.02946734  0.93628470     0.97260
C174        C  0.13465415  0.48001738  0.00070714     1.03180
O175        O  0.11133173  0.03272143  0.96017381    -0.79410
C176        C  0.21233771  0.08209082  0.96308043     1.01480
Fe177      Fe  0.11062689  0.16906576  0.54589072     1.65780
Fe178      Fe  0.09219143  0.21268204  0.48865991     1.73250
Fe179      Fe  0.16131441  0.19119018  0.49547024     1.54410
O180        O  0.17728724  0.19263332  0.54092128    -0.83150
O181        O  0.10060255  0.19192289  0.44866100    -0.81450
O182        O  0.13749906  0.19517782  0.57029585    -0.85650
O183        O  0.14319003  0.13830519  0.54017406    -0.80510
O184        O  0.16320721  0.23611637  0.49673938    -0.82280
O185        O  0.06029723  0.18074253  0.49729956    -0.85030
C186        C  0.15321064  0.12882592  0.51511502     0.95740
C187        C  0.16421212  0.20031159  0.56552159     1.03180
O188        O  0.12147159  0.19076867  0.50949005    -1.14010
O189        O  0.08353096  0.23436801  0.52819342    -0.76440
O190        O  0.07606716  0.19596363  0.55764932    -0.79930
O191        O  0.16029757  0.14607626  0.49356570    -0.80620
C192        C  0.07070865  0.22212098  0.55028830     0.94640
O193        O  0.08267126  0.14379432  0.52083663    -0.78580
O194        O  0.11987903  0.24724254  0.47738904    -0.83770
C195        C  0.12470291  0.18898778  0.43498277     0.97260
C196        C  0.14508230  0.25460690  0.48661328     1.03180
O197        O  0.14915792  0.19136868  0.44873688    -0.79410
C198        C  0.06103348  0.15423537  0.50639804     1.01480
Fe199      Fe  0.09237373  0.40623641  0.52261275     1.65780
Fe200      Fe  0.09169690  0.46251656  0.47400731     1.73250
Fe201      Fe  0.15451772  0.44246899  0.50733233     1.54410
O202        O  0.15061245  0.43536736  0.55496020    -0.83150
O203        O  0.11809295  0.45279977  0.43773034    -0.81450
O204        O  0.10427330  0.42266536  0.56328616    -0.85650
O205        O  0.12660629  0.37763301  0.52299861    -0.80510
O206        O  0.15019303  0.48632642  0.51720172    -0.82280
O207        O  0.06204293  0.42955124  0.46144910    -0.85030
C208        C  0.14873904  0.37617632  0.50597248     0.95740
C209        C  0.12833045  0.43259020  0.57237387     1.03180
O210        O  0.11322872  0.43712170  0.50114574    -1.14010
O211        O  0.06620827  0.47449416  0.51018383    -0.76440
O212        O  0.05457112  0.43031287  0.52684530    -0.79930
O213        O  0.16183598  0.39877884  0.49622996    -0.80620
C214        C  0.05102268  0.45769423  0.52680550     0.94640
O215        O  0.07940916  0.38890653  0.48199965    -0.78580
O216        O  0.11729950  0.49887550  0.48235722    -0.83770
C217        C  0.14562625  0.45577998  0.43724978     0.97260
C218        C  0.13709798  0.00545578  0.50133300     1.03180
O219        O  0.16139952  0.45299213  0.46116048    -0.79410
C220        C  0.06168220  0.40188080  0.46457465     1.01480
Fe221      Fe  0.31175226  0.01740757  0.79545283     1.65780
Fe222      Fe  0.35581072  0.03479117  0.73826823     1.73250
Fe223      Fe  0.33352327  0.46594110  0.74623469     1.54420
O224        O  0.33414605  0.45031512  0.79198065    -0.83150
O225        O  0.33489473  0.02628067  0.69844027    -0.81450
O226        O  0.33701678  0.49031199  0.82084285    -0.85650
O227        O  0.28054905  0.48520731  0.78992215    -0.80510
O228        O  0.37841538  0.46361466  0.74817343    -0.82280
O229        O  0.32442113  0.06730125  0.74618593    -0.85030
C230        C  0.27117272  0.47487501  0.76498907     0.95740
C231        C  0.34126180  0.46335516  0.81672638     1.03180
O232        O  0.33352177  0.00592522  0.75953166    -1.14010
O233        O  0.37751825  0.04350962  0.77775110    -0.76440
O234        O  0.33912068  0.05182365  0.80671123    -0.79930
O235        O  0.28847396  0.46745258  0.74372814    -0.80620
C236        C  0.36526623  0.05702775  0.79922736     0.94640
O237        O  0.28711511  0.04536992  0.76954359    -0.78580
O238        O  0.38989776  0.00648056  0.72753239    -0.83770
C239        C  0.33200360  0.50207427  0.68512765     0.97260
C240        C  0.39705183  0.48139862  0.73753706     1.03180
O241        O  0.33430626  0.47768893  0.69927235    -0.79410
C242        C  0.29786701  0.06684744  0.75495091     1.01480
Fe243      Fe  0.04893867  0.03616258  0.77224606     1.65780
Fe244      Fe  0.10514344  0.03676804  0.72367405     1.73250
Fe245      Fe  0.08502952  0.47379191  0.75723418     1.54420
O246        O  0.07840431  0.47734768  0.80485394    -0.83150
O247        O  0.09474412  0.51072477  0.68744451    -0.81450
O248        O  0.06470147  0.02336778  0.81308761    -0.85650
O249        O  0.01974909  0.50240613  0.77150537    -0.80510
O250        O  0.12888324  0.47812033  0.76693844    -0.82280
O251        O  0.07278361  0.06723109  0.71137437    -0.85030
C252        C  0.01856696  0.47936943  0.75591280     0.95740
C253        C  0.07513312  0.49944615  0.82225091     1.03180
O254        O  0.07962341  0.01519461  0.75086094    -1.14010
O255        O  0.11765973  0.06171176  0.75990159    -0.76440
O256        O  0.07383779  0.07341051  0.77734533    -0.79930
O257        O  0.04124730  0.46614634  0.74673723    -0.80620
C258        C  0.10124607  0.07671954  0.77695215     0.94640
O259        O  0.03196422  0.05025738  0.73171599    -0.78580
O260        O  0.14129386  0.01070994  0.73157548    -0.83770
C261        C  0.09802008  0.48318847  0.68701134     0.97260
C262        C  0.14794573  0.49100019  0.75077453     1.03180
O263        O  0.09529832  0.46726528  0.71097241    -0.79410
C264        C  0.04519161  0.06808345  0.71452984     1.01480
Fe265      Fe  0.06022289  0.26660552  0.29711704     1.65780
Fe266      Fe  0.10207561  0.28802425  0.23981203     1.73250
Fe267      Fe  0.08426903  0.21796327  0.24541565     1.54410
O268        O  0.08586798  0.20052095  0.29034473    -0.83150
O269        O  0.08020356  0.28002118  0.20036422    -0.81450
O270        O  0.08681695  0.23945204  0.32086182    -0.85650
O271        O  0.03032665  0.23349643  0.29000612    -0.80510
O272        O  0.12949046  0.21809811  0.24709266    -0.82280
O273        O  0.07027371  0.31890800  0.25032616    -0.85030
C274        C  0.02143234  0.22394853  0.26451721     0.95740
C275        C  0.09253045  0.21297795  0.31553403     1.03180
O276        O  0.08193488  0.25740493  0.26042709    -1.14010
O277        O  0.12456982  0.29594392  0.27900519    -0.76440
O278        O  0.08672876  0.30133692  0.30968244    -0.79930
O279        O  0.03910730  0.21749146  0.24318388    -0.80620
C280        C  0.11251803  0.30771837  0.30175562     0.94640
O281        O  0.03403673  0.29501877  0.27322204    -0.78580
O282        O  0.13642381  0.26177817  0.22641671    -0.83770
C283        C  0.07990286  0.25622299  0.18587639     0.97260
C284        C  0.14628021  0.23789853  0.23694127     1.03180
O285        O  0.08433645  0.23165626  0.19908142    -0.79410
C286        C  0.04401640  0.31746139  0.25965516     1.01480
Fe287      Fe  0.30258313  0.28836816  0.27344785     1.65780
Fe288      Fe  0.35600217  0.28792542  0.22254870     1.73250
Fe289      Fe  0.33494552  0.22534002  0.25675967     1.54420
O290        O  0.32885492  0.22993123  0.30476683    -0.83150
O291        O  0.34496797  0.26135855  0.18697427    -0.81450
O292        O  0.32262533  0.27773292  0.31259265    -0.85650
O293        O  0.27596411  0.25313175  0.27921315    -0.80510
O294        O  0.37920385  0.22816377  0.26542704    -0.82280
O295        O  0.32215029  0.31716472  0.21046741    -0.85030
C296        C  0.27002680  0.23473444  0.25896382     0.95740
C297        C  0.32945323  0.25257753  0.32192100     1.03180
O298        O  0.33153108  0.26686108  0.25067559    -1.14010
O299        O  0.36941765  0.31382718  0.25797671    -0.76440
O300        O  0.32559896  0.32676887  0.27335361    -0.79930
O301        O  0.29032999  0.22037093  0.24627099    -0.80620
C302        C  0.35294064  0.32952525  0.27421786     0.94640
O303        O  0.28264224  0.29955818  0.23341842    -0.78580
O304        O  0.39213183  0.26180561  0.23096412    -0.83770
C305        C  0.34784601  0.23381226  0.18655307     0.97260
C306        C  0.39844307  0.24141989  0.24965253     1.03180
O307        O  0.34474702  0.21799445  0.21052163    -0.79410
C308        C  0.29455996  0.31704887  0.21471977     1.01480
Fe309      Fe  0.34238558  0.15594948  0.02280834     1.65780
Fe310      Fe  0.34142123  0.21222963  0.97393106     1.73250
Fe311      Fe  0.40452596  0.19212944  0.00700920     1.54410
O312        O  0.40081448  0.18531124  0.05466085    -0.83150
O313        O  0.36801630  0.20321488  0.93750873    -0.81450
O314        O  0.35451600  0.17267988  0.06330917    -0.85650
O315        O  0.37667207  0.12732859  0.02309641    -0.80510
O316        O  0.40021548  0.23589045  0.01664204    -0.82280
O317        O  0.31220647  0.17895225  0.96110010    -0.85030
C318        C  0.39928044  0.12585469  0.00674658     0.95740
C319        C  0.37857553  0.18278155  0.07215283     1.03180
O320        O  0.36314631  0.18676463  0.00096466    -1.14010
O321        O  0.31571166  0.22389412  0.01002772    -0.76440
O322        O  0.30447855  0.17985908  0.02730446    -0.79930
O323        O  0.41206537  0.14840392  0.99642893    -0.80620
C324        C  0.30078541  0.20721091  0.02699681     0.94640
O325        O  0.32902027  0.13836135  0.98242881    -0.78580
O326        O  0.36632914  0.24892085  0.98292303    -0.83770
C327        C  0.39558566  0.20590782  0.93703816     0.97260
C328        C  0.38622180  0.25512144  0.00187278     1.03180
O329        O  0.41133843  0.20255493  0.96087112    -0.79410
C330        C  0.31160143  0.15131265  0.96460922     1.01480
Fe331      Fe  0.36009013  0.41993900  0.04855012     1.65780
Fe332      Fe  0.34169674  0.46421403  0.99214128     1.73250
Fe333      Fe  0.41041036  0.44029540  0.99710243     1.54420
O334        O  0.42691981  0.44158594  0.04242337    -0.83150
O335        O  0.34891297  0.44444369  0.95138191    -0.81450
O336        O  0.38751671  0.44592485  0.07230459    -0.85650
O337        O  0.39249390  0.38950786  0.04276947    -0.80510
O338        O  0.41373176  0.48521880  0.99805182    -0.82280
O339        O  0.30963370  0.43225659  0.00050767    -0.85030
C340        C  0.40061835  0.37862973  0.01766419     0.95740
C341        C  0.41440870  0.44979446  0.06719950     1.03180
O342        O  0.37081338  0.44128503  0.01190994    -1.14010
O343        O  0.33419255  0.48523588  0.03240894    -0.76440
O344        O  0.32551951  0.44649000  0.06065237    -0.79930
O345        O  0.40817931  0.39498382  0.99551929    -0.80620
C346        C  0.32038539  0.47270876  0.05360946     0.94640
O347        O  0.33195463  0.39493248  0.02361508    -0.78580
O348        O  0.36990071  0.49838003  0.98129390    -0.83770
C349        C  0.37254878  0.43994758  0.93728796     0.97260
C350        C  0.39581106  0.00451477  0.98921723     1.03180
O351        O  0.39735479  0.44060949  0.95059548    -0.79410
C352        C  0.31043157  0.40556611  0.00912048     1.01480
C353        C  0.39781619  0.08488638  0.97067040    -0.14820
C354        C  0.40853210  0.09634803  0.99813382     0.07330
C355        C  0.41911054  0.07717304  0.02058539    -0.14820
C356        C  0.41760149  0.04697912  0.01625868    -0.14820
C357        C  0.40445577  0.03554170  0.98991628     0.07330
C358        C  0.39542788  0.05474283  0.96674763    -0.14820
H359        H  0.38859057  0.09924007  0.95352244     0.11320
H360        H  0.42645150  0.08549741  0.04237782     0.11320
H361        H  0.42424634  0.03262375  0.03468492     0.11320
H362        H  0.38499426  0.04645743  0.94638622     0.11320
C363        C  0.38283535  0.33011739  0.03534630    -0.14820
C364        C  0.39979764  0.34650602  0.01460955     0.07330
C365        C  0.41348043  0.33208222  0.99023864    -0.14820
C366        C  0.40988433  0.30195594  0.98656132    -0.14820
C367        C  0.39257466  0.28598613  0.00715619     0.07330
C368        C  0.37923065  0.30020132  0.03160215    -0.14820
H369        H  0.37148912  0.34057383  0.05402466     0.11320
H370        H  0.42644943  0.34412317  0.97380317     0.11320
H371        H  0.42007125  0.29120487  0.96733513     0.11320
H372        H  0.36539100  0.28825109  0.04734215     0.11320
C373        C  0.36792102  0.23751062  0.13337066    -0.14820
C374        C  0.35747566  0.22007873  0.15761218     0.07330
C375        C  0.35894589  0.18964291  0.15479221    -0.14820
C376        C  0.36896638  0.17702026  0.12767285    -0.14820
C377        C  0.37854422  0.19453735  0.10325378     0.07330
C378        C  0.37849997  0.22485063  0.10657800    -0.14820
H379        H  0.36765645  0.26102283  0.13491895     0.11320
H380        H  0.35157351  0.17558498  0.17318293     0.11320
H381        H  0.36786499  0.15361062  0.12512450     0.11320
H382        H  0.38463701  0.23881113  0.08757434     0.11320
C383        C  0.19310608  0.20804300  0.24059241    -0.14820
C384        C  0.17838480  0.23497872  0.23903998     0.07330
C385        C  0.19453865  0.26065601  0.24209153    -0.14820
C386        C  0.22412722  0.25972958  0.24771486    -0.14820
C387        C  0.23912232  0.23318726  0.24955852     0.07330
C388        C  0.22353476  0.20716514  0.24530839    -0.14820
H389        H  0.18111933  0.18787389  0.23856018     0.11320
H390        H  0.18405021  0.28177741  0.24166245     0.11320
H391        H  0.23516531  0.28014181  0.25156433     0.11320
H392        H  0.23450683  0.18637927  0.24705253     0.11320
C393        C  0.47047295  0.21799130  0.28401275    -0.14820
C394        C  0.48967773  0.22261106  0.25937549     0.07330
C395        C  0.47828019  0.23114370  0.23097273    -0.14820
C396        C  0.44852282  0.23665846  0.22776020    -0.14820
C397        C  0.42943423  0.23307649  0.25268253     0.07330
C398        C  0.44055316  0.22274532  0.28056914    -0.14820
H399        H  0.47875943  0.21169068  0.30623881     0.11320
H400        H  0.49261413  0.23537253  0.21176792     0.11320
H401        H  0.44049551  0.24433974  0.20589726     0.11320
H402        H  0.42634584  0.21977930  0.30011700     0.11320
C403        C  0.44003577  0.45865326  0.76348581    -0.14820
C404        C  0.42836146  0.47362610  0.73817797     0.07330
C405        C  0.44746732  0.48487992  0.71598622    -0.14820
C406        C  0.47759232  0.48293149  0.72001823    -0.14820
C407        C  0.48922504  0.47021674  0.74656296     0.07330
C408        C  0.47024269  0.45742580  0.76791552    -0.14820
H409        H  0.42581458  0.45017297  0.78118688     0.11320
H410        H  0.43909687  0.49664705  0.69637555     0.11320
H411        H  0.99176997  0.49383008  0.70377908     0.11320
H412        H  0.47866382  0.44848727  0.78907641     0.11320
C413        C  0.22046756  0.46991050  0.78549647    -0.14820
C414        C  0.23935458  0.47346909  0.76040340     0.07330
C415        C  0.22759017  0.48047348  0.73171822    -0.14820
C416        C  0.19776122  0.48555745  0.72857670    -0.14820
C417        C  0.17898904  0.48303216  0.75388678     0.07330
C418        C  0.19047371  0.47421039  0.78216192    -0.14820
H419        H  0.22904341  0.46473292  0.80791429     0.11320
H420        H  0.24167343  0.48379947  0.71212239     0.11320
H421        H  0.18941621  0.49206562  0.70643157     0.11320
H422        H  0.17648598  0.47208963  0.80200053     0.11320
C423        C  0.33642547  0.42998643  0.86117851    -0.14820
C424        C  0.35412150  0.44751196  0.84266919     0.07330
C425        C  0.38127027  0.45669763  0.85383141    -0.14820
C426        C  0.38936253  0.45087358  0.88411369    -0.14820
C427        C  0.37006957  0.43630407  0.90377763     0.07330
C428        C  0.34431191  0.42447599  0.89154884    -0.14820
H429        H  0.31518669  0.42321746  0.85325093     0.11320
H430        H  0.39500160  0.47070042  0.83996503     0.11320
H431        H  0.40909304  0.46053056  0.89295619     0.11320
H432        H  0.32899094  0.41320083  0.90627445     0.11320
C433        C  0.12082837  0.48650669  0.63506144    -0.14820
C434        C  0.10771257  0.46947736  0.65814415     0.07330
C435        C  0.10638795  0.43916294  0.65435092    -0.14820
C436        C  0.11620707  0.42642237  0.62725005    -0.14820
C437        C  0.12830456  0.44361028  0.60380581     0.07330
C438        C  0.13120446  0.47365388  0.60825489    -0.14820
H439        H  0.12281773  0.50985982  0.63755534     0.11320
H440        H  0.09688580  0.42540031  0.67189134     0.11320
H441        H  0.11294142  0.40331392  0.62386137     0.11320
H442        H  0.13946477  0.48746993  0.59004926     0.11320
C443        C  0.09861442  0.17169319  0.38858907    -0.14820
C444        C  0.12311766  0.18541182  0.40143708     0.07330
C445        C  0.14132634  0.20198408  0.38239942    -0.14820
C446        C  0.13297774  0.20798074  0.35225695    -0.14820
C447        C  0.10669212  0.19700680  0.34061357     0.07330
C448        C  0.09049143  0.17739497  0.35831846    -0.14820
H449        H  0.08417367  0.15882724  0.40285328     0.11320
H450        H  0.16007034  0.21307601  0.39174226     0.11320
H451        H  0.14553845  0.22355064  0.33901882     0.11320
H452        H  0.06992252  0.16914971  0.35000418     0.11320
C453        C  0.14255425  0.05532629  0.47905597    -0.14820
C454        C  0.14498276  0.03653931  0.50440952     0.07330
C455        C  0.15368969  0.04803422  0.53262514    -0.14820
C456        C  0.15799854  0.07806745  0.53584800    -0.14820
C457        C  0.15456579  0.09696497  0.51069408     0.07330
C458        C  0.14764776  0.08517799  0.48207904    -0.14820
H459        H  0.13613924  0.04696664  0.45695381     0.11320
H460        H  0.15573412  0.03402453  0.55248980     0.11320
H461        H  0.16310038  0.08665969  0.55822020     0.11320
H462        H  0.14441353  0.09925969  0.46244006     0.11320
C463        C  0.13966593  0.30539541  0.46623354    -0.14820
C464        C  0.15266714  0.28601080  0.48702444     0.07330
C465        C  0.16959211  0.29741634  0.51094867    -0.14820
C466        C  0.17122206  0.32759361  0.51556272    -0.14820
C467        C  0.15681133  0.34681214  0.49571312     0.07330
C468        C  0.14193949  0.33548539  0.47041410    -0.14820
H469        H  0.12639814  0.29726762  0.44770767     0.11320
H470        H  0.17948552  0.28298975  0.52759569     0.11320
H471        H  0.18188065  0.33578979  0.53583356     0.11320
H472        H  0.12982345  0.34986999  0.45542464     0.11320
C473        C  0.08289409  0.02269249  0.90361017    -0.14820
C474        C  0.11304635  0.01984172  0.90762598     0.07330
C475        C  0.12934363  0.00529913  0.88508441    -0.14820
C476        C  0.11598344  0.99506873  0.85849697    -0.14820
C477        C  0.08618442  0.99955358  0.85373663     0.07330
C478        C  0.06967879  0.01299211  0.87676057    -0.14820
H479        H  0.06965804  0.03330595  0.92077066     0.11320
H480        H  0.15250618  0.00208695  0.88783609     0.11320
H481        H  0.12934152  0.98566764  0.84064370     0.11320
H482        H  0.04683080  0.51733025  0.87320120     0.11320
C483        C  0.26007854  0.14667028  0.94775893    -0.14820
C484        C  0.28757839  0.13389310  0.95151889     0.07330
C485        C  0.28987319  0.10335940  0.95043135    -0.14820
C486        C  0.26488491  0.08597330  0.94976690    -0.14820
C487        C  0.23722345  0.09886855  0.95064512     0.07330
C488        C  0.23507891  0.12929560  0.94757145    -0.14820
H489        H  0.25756850  0.17009241  0.94857188     0.11320
H490        H  0.31082151  0.09289085  0.95311107     0.11320
H491        H  0.26725818  0.06262225  0.95221191     0.11320
H492        H  0.21401033  0.13981927  0.94805506     0.11320
C493        C  0.26733249  0.03107578  0.05436755    -0.14820
C494        C  0.24317565  0.01422728  0.04608280     0.07330
C495        C  0.24288735  0.48434792  0.05287889    -0.14820
C496        C  0.26823018  0.47073393  0.06272636    -0.14820
C497        C  0.29404733  0.48687742  0.06458759     0.07330
C498        C  0.29282103  0.01735732  0.06362039    -0.14820
H499        H  0.26773427  0.05433223  0.05021254     0.11320
H500        H  0.22403749  0.47111095  0.04773061     0.11320
H501        H  0.26864945  0.44715957  0.06370638     0.11320
H502        H  0.31253779  0.03014421  0.06543284     0.11320
C503        C  0.11313019  0.40731191  0.03531208    -0.14820
C504        C  0.11624702  0.38867303  0.01007322     0.07330
C505        C  0.12295504  0.40073175  0.98137945    -0.14820
C506        C  0.12825753  0.43056626  0.97835808    -0.14820
C507        C  0.12626463  0.44906024  0.00380396     0.07330
C508        C  0.11767090  0.43734073  0.03210472    -0.14820
H509        H  0.10816141  0.39850636  0.05773891     0.11320
H510        H  0.12591241  0.38685869  0.96166150     0.11320
H511        H  0.13456361  0.43912946  0.95618994     0.11320
H512        H  0.11595749  0.45114022  0.05203080     0.11320
C513        C  0.13075782  0.18132808  0.96479083    -0.14820
C514        C  0.11827121  0.20009752  0.98638960     0.07330
C515        C  0.10212434  0.18797453  0.01071120    -0.14820
C516        C  0.10084299  0.15766989  0.01486339    -0.14820
C517        C  0.11483471  0.13904429  0.99419854     0.07330
C518        C  0.12884170  0.15112168  0.96854839    -0.14820
H519        H  0.14340466  0.19001666  0.94591970     0.11320
H520        H  0.09263370  0.20191354  0.02795474     0.11320
H521        H  0.09089830  0.14890452  0.03540872     0.11320
H522        H  0.14066123  0.13721715  0.95291240     0.11320
C523        C  0.06507280  0.28354898  0.13890694    -0.14820
C524        C  0.07729287  0.25835616  0.15221236     0.07330
C525        C  0.09275089  0.23903873  0.13352394    -0.14820
C526        C  0.09910198  0.24669286  0.10324167    -0.14820
C527        C  0.08958953  0.27341510  0.09108762     0.07330
C528        C  0.07114142  0.29099796  0.10849496    -0.14820
H529        H  0.05298149  0.29881893  0.15279267     0.11320
H530        H  0.10260132  0.21965205  0.14313619     0.11320
H531        H  0.11373518  0.23304218  0.09019037     0.11320
H532        H  0.06404595  0.31190861  0.09973343     0.11320
C533        C  0.22649225  0.21758765  0.05947033    -0.14820
C534        C  0.22575313  0.24810112  0.06069213     0.07330
C535        C  0.25190270  0.26378324  0.06017934    -0.14820
C536        C  0.27753072  0.24977438  0.05183763    -0.14820
C537        C  0.27714592  0.21994261  0.04502922     0.07330
C538        C  0.25222809  0.20347501  0.05166372    -0.14820
H539        H  0.20647956  0.20514366  0.06010143     0.11320
H540        H  0.25183490  0.28734788  0.06121815     0.11320
H541        H  0.29688361  0.26271448  0.04783220     0.11320
H542        H  0.25166180  0.18029989  0.04727979     0.11320
C543        C  0.26329227  0.33844844  0.00151930    -0.14820
C544        C  0.23527364  0.35059407  0.00213492     0.07330
C545        C  0.23228581  0.38104196  0.00205921    -0.14820
C546        C  0.25684366  0.39899090  0.00257711    -0.14820
C547        C  0.28482274  0.38680343  0.00387776     0.07330
C548        C  0.28784172  0.35638483  0.00273133    -0.14820
H549        H  0.26621871  0.31505432  0.00177704     0.11320
H550        H  0.21092343  0.39095638  0.00245658     0.11320
H551        H  0.25388524  0.42235861  0.00356947     0.11320
H552        H  0.30918216  0.34644694  0.00357867     0.11320
C553        C  0.40674872  0.24035427  0.85891741    -0.14820
C554        C  0.43639716  0.23527684  0.85375902     0.07330
C555        C  0.45286166  0.22145751  0.87663933    -0.14820
C556        C  0.43972540  0.21198672  0.90378262    -0.14820
C557        C  0.40967889  0.21543366  0.90819977     0.07330
C558        C  0.39345503  0.23032747  0.88577555    -0.14820
H559        H  0.39341879  0.25007361  0.84120176     0.11320
H560        H  0.47561500  0.21661303  0.87275871     0.11320
H561        H  0.45288755  0.20106922  0.92083482     0.11320
H562        H  0.37037389  0.23397517  0.88883449     0.11320
C563        C  0.02388885  0.14536048  0.69938955    -0.14820
C564        C  0.49342379  0.14324006  0.70160062     0.07330
C565        C  0.48045003  0.11564406  0.69961619    -0.14820
C566        C  0.49769022  0.09055381  0.69998436    -0.14820
C567        C  0.02816636  0.09268518  0.70187026     0.07330
C568        C  0.04112855  0.12026877  0.69929347    -0.14820
H569        H  0.03448526  0.16638089  0.70073478     0.11320
H570        H  0.45707312  0.11328012  0.70137950     0.11320
H571        H  0.48709716  0.06954395  0.70176905     0.11320
H572        H  0.06451351  0.12264260  0.70077520     0.11320
C573        C  0.42439932  0.10983295  0.80163398    -0.14820
C574        C  0.40788059  0.13468059  0.79484572     0.07330
C575        C  0.37800128  0.13484925  0.80143563    -0.14820
C576        C  0.36407912  0.10909139  0.80976828    -0.14820
C577        C  0.37990742  0.08302348  0.81047716     0.07330
C578        C  0.41038112  0.08396304  0.80939269    -0.14820
H579        H  0.44761116  0.10942260  0.79743060     0.11320
H580        H  0.36500358  0.15412557  0.79729695     0.11320
H581        H  0.34053091  0.10886617  0.81071024     0.11320
H582        H  0.42293181  0.06402310  0.81018892     0.11320
C583        C  0.17432968  0.24954796  0.63233136    -0.14820
C584        C  0.19309522  0.23270618  0.65036271     0.07330
C585        C  0.20785805  0.20915949  0.63679035    -0.14820
C586        C  0.20129416  0.20048096  0.60693026    -0.14820
C587        C  0.17968591  0.21509913  0.59045630     0.07330
C588        C  0.16744919  0.24060327  0.60267580    -0.14820
H589        H  0.16235975  0.26746309  0.64229692     0.11320
H590        H  0.22232703  0.19572545  0.65034075     0.11320
H591        H  0.21068198  0.18059005  0.59812363     0.11320
H592        H  0.15051385  0.25204860  0.59032100     0.11320
C593        C  0.08216994  0.27642408  0.76187196    -0.14820
C594        C  0.09385075  0.26080447  0.73709787     0.07330
C595        C  0.07473650  0.24899253  0.71544595    -0.14820
C596        C  0.04461378  0.25109377  0.71951834    -0.14820
C597        C  0.03297355  0.26456363  0.74556494     0.07330
C598        C  0.05196048  0.27784053  0.76635196    -0.14820
H599        H  0.09638325  0.28536316  0.77916863     0.11320
H600        H  0.08309183  0.23673818  0.69624534     0.11320
H601        H  0.03042938  0.23980977  0.70376368     0.11320
H602        H  0.04353602  0.28735432  0.78717712     0.11320
C603        C  0.29478643  0.25618891  0.73154583    -0.14820
C604        C  0.28265227  0.26258598  0.76019207     0.07330
C605        C  0.30124057  0.26567899  0.78550167    -0.14820
C606        C  0.33128609  0.26142412  0.78241320    -0.14820
C607        C  0.34310032  0.25312074  0.75416015     0.07330
C608        C  0.32464523  0.25115608  0.72864272    -0.14820
H609        H  0.28096336  0.25324372  0.71177737     0.11320
H610        H  0.29238477  0.27039962  0.80789964     0.11320
H611        H  0.34503267  0.26310699  0.80240013     0.11320
H612        H  0.33326083  0.24506330  0.70650647     0.11320
C613        C  0.17981041  0.30752521  0.85717373    -0.14820
C614        C  0.16502663  0.28610610  0.84071851     0.07330
C615        C  0.13950526  0.27388507  0.85309877    -0.14820
C616        C  0.13058936  0.28069454  0.88281152    -0.14820
C617        C  0.14748520  0.29935023  0.90076187     0.07330
C618        C  0.17117724  0.31399228  0.88711099    -0.14820
H619        H  0.19972276  0.31688843  0.84822703     0.11320
H620        H  0.12793987  0.25709339  0.84075600     0.11320
H621        H  0.11255032  0.26882186  0.89283473     0.11320
H622        H  0.18464460  0.32838552  0.90058663     0.11320
C623        C  0.24907156  0.09024586  0.74884258    -0.14820
C624        C  0.27949229  0.09282970  0.74994907     0.07330
C625        C  0.29205484  0.12071443  0.74919689    -0.14820
C626        C  0.27447179  0.14555620  0.74936716    -0.14820
C627        C  0.24402212  0.14295789  0.74957798     0.07330
C628        C  0.23150555  0.11508095  0.74830644    -0.14820
H629        H  0.23884929  0.06899845  0.74927393     0.11320
H630        H  0.31544243  0.12333279  0.75018520     0.11320
H631        H  0.28467245  0.16679438  0.75022625     0.11320
H632        H  0.20810223  0.11242827  0.74860972     0.11320
C633        C  0.14424038  0.09969808  0.80118810    -0.14820
C634        C  0.11432317  0.10014695  0.79490287     0.07330
C635        C  0.09803085  0.12505799  0.80181323    -0.16010
C636        C  0.11230293  0.15077229  0.80929614    -0.14820
C637        C  0.14279081  0.15147579  0.80996486     0.07330
C638        C  0.15842140  0.12530365  0.80921945    -0.14820
H639        H  0.15706597  0.08035130  0.79695721     0.11320
H640        H  0.07480299  0.12567295  0.79784430     0.11320
H641        H  0.09991540  0.17080775  0.81014073     0.11320
H642        H  0.18197692  0.12535942  0.80985069     0.11320
C643        C  0.32018092  0.03601850  0.60816625    -0.14820
C644        C  0.34065214  0.02060199  0.59098151     0.07330
C645        C  0.35229836  0.99462264  0.60293500    -0.14820
C646        C  0.34609628  0.98592514  0.63295537    -0.14820
C647        C  0.32863051  0.50348370  0.65156066     0.07330
C648        C  0.31428527  0.02756197  0.63834757    -0.14820
H649        H  0.31131683  0.05629746  0.59956846     0.11320
H650        H  0.36840442  0.98259143  0.59002951     0.11320
H651        H  0.35766941  0.96753492  0.64260711     0.11320
H652        H  0.30074518  0.04149945  0.65231384     0.11320
C653        C  0.48250572  0.13042671  0.50080646    -0.14820
C654        C  0.48512650  0.09996198  0.50140893     0.07330
C655        C  0.01301102  0.08747804  0.50074640    -0.14820
C656        C  0.03780358  0.10513336  0.50133133    -0.14820
C657        C  0.03516853  0.13560026  0.50186359     0.07330
C658        C  0.00729546  0.14807975  0.50067233    -0.14820
H659        H  0.46126355  0.14059509  0.50122086     0.11320
H660        H  0.01565895  0.06405508  0.50139258     0.11320
H661        H  0.05903293  0.09496054  0.50212365     0.11320
H662        H  0.00461392  0.17149522  0.50122632     0.11320
C663        C  0.47643173  0.46747335  0.55859473    -0.14820
C664        C  0.47551551  0.99795713  0.56002570     0.07330
C665        C  0.00156358  0.01382018  0.55980787    -0.14820
C666        C  0.02733553  0.00003256  0.55159762    -0.14820
C667        C  0.02718450  0.47024153  0.54464605     0.07330
C668        C  0.00231448  0.45357811  0.55096245    -0.14820
H669        H  0.45649596  0.45489913  0.55901624     0.11320
H670        H  0.50134743  0.03737482  0.56102661     0.11320
H671        H  0.04663326  0.01311184  0.54782338     0.11320
H672        H  0.00192444  0.43041883  0.54646938     0.11320
C673        C  0.38832928  0.26451089  0.60979218    -0.14820
C674        C  0.39370441  0.29411534  0.60430101     0.07330
C675        C  0.40795234  0.31052648  0.62681856    -0.14820
C676        C  0.41764679  0.29734878  0.65382264    -0.14820
C677        C  0.41397204  0.26731561  0.65846176     0.07330
C678        C  0.39857301  0.25117735  0.63649961    -0.14820
H679        H  0.37824471  0.25120016  0.59238786     0.11320
H680        H  0.41299888  0.33324621  0.62270922     0.11320
H681        H  0.42892471  0.31044588  0.67056273     0.11320
H682        H  0.39469796  0.22812142  0.63980225     0.11320
C683        C  0.37744243  0.40131178  0.46863950    -0.14820
C684        C  0.36406910  0.38933693  0.49471359     0.07330
C685        C  0.35031001  0.40803083  0.51548906    -0.14820
C686        C  0.35131430  0.43831546  0.51106569    -0.14820
C687        C  0.36695978  0.45035823  0.48634375     0.07330
C688        C  0.37910272  0.43150802  0.46460775    -0.14820
H689        H  0.38905944  0.38736999  0.45287499     0.11320
H690        H  0.34083949  0.39936259  0.53632519     0.11320
H691        H  0.34211766  0.45232397  0.52842297     0.11320
H692        H  0.39137671  0.44014317  0.44543992     0.11320
C693        C  0.36798598  0.18762004  0.53370919    -0.14820
C694        C  0.37663072  0.19942320  0.50545751     0.07330
C695        C  0.37851449  0.18101204  0.47993407    -0.14820
C696        C  0.37299707  0.15119337  0.48281259    -0.14820
C697        C  0.36619869  0.13903978  0.51144484     0.07330
C698        C  0.36326003  0.15759294  0.53677962    -0.14820
H699        H  0.36635591  0.20134868  0.55369684     0.11320
H700        H  0.38486383  0.18963246  0.45780361     0.11320
H701        H  0.37584631  0.13738816  0.46302431     0.11320
H702        H  0.35825341  0.14871627  0.55916605     0.11320
C703        C  0.38164097  0.25579670  0.38655676    -0.14820
C704        C  0.36482996  0.27026593  0.40875348     0.07330
C705        C  0.33487649  0.27357567  0.40382503    -0.14820
C706        C  0.32242394  0.26449254  0.37636640    -0.14820
C707        C  0.33950811  0.25129931  0.35365623     0.07330
C708        C  0.36903873  0.24626970  0.35929961    -0.14820
H709        H  0.40467442  0.25225089  0.39003034     0.11320
H710        H  0.32128958  0.28418663  0.42067113     0.11320
H711        H  0.29976217  0.26937649  0.37201718     0.11320
H712        H  0.38280320  0.23707280  0.34168184     0.11320
C713        C  0.49344993  0.23535155  0.55490424    -0.14820
C714        C  0.49390532  0.26516648  0.54775316     0.07330
C715        C  0.01885008  0.28160045  0.55411012    -0.14820
C716        C  0.04461574  0.26741880  0.56162042    -0.14820
C717        C  0.04530080  0.23690371  0.56276319     0.07330
C718        C  0.01911803  0.22127319  0.56295101    -0.14820
H719        H  0.47406694  0.22245139  0.55115757     0.11320
H720        H  0.01946052  0.30478190  0.54951952     0.11320
H721        H  0.06465766  0.27982059  0.56185707     0.11320
H722        H  0.01914673  0.19770136  0.56408580     0.11320
C723        C  0.01512127  0.33641746  0.45036287    -0.14820
C724        C  0.48744186  0.34921402  0.45174375     0.07330
C725        C  0.48511109  0.37962260  0.44857408    -0.14820
C726        C  0.01002615  0.39710036  0.44833428    -0.14820
C727        C  0.03761263  0.38442762  0.45169480     0.07330
C728        C  0.04003411  0.35390635  0.45053828    -0.14820
H729        H  0.01762903  0.31308081  0.45280229     0.11320
H730        H  0.46401055  0.39006593  0.44936561     0.11320
H731        H  0.00743143  0.42051306  0.44917136     0.11320
H732        H  0.06106558  0.34352749  0.45286934     0.11320
C733        C  0.15642218  0.49005003  0.35910822    -0.14820
C734        C  0.18568166  0.48370510  0.35313730     0.07330
C735        C  0.20214175  0.46922719  0.37559587    -0.14820
C736        C  0.18930389  0.46031519  0.40310297    -0.14820
C737        C  0.15954888  0.46497903  0.40826138     0.07330
C738        C  0.14340311  0.48054906  0.38629791    -0.14820
H739        H  0.14307066  0.00037741  0.34179887     0.11320
H740        H  0.22459229  0.46349944  0.37114325     0.11320
H741        H  0.20237754  0.44883426  0.41982269     0.11320
H742        H  0.12057084  0.48512876  0.38998753     0.11320
C743        C  0.16730062  0.04482795  0.15262449    -0.14820
C744        C  0.16267921  0.01490920  0.15720224     0.07330
C745        C  0.14728964  0.49919681  0.13489161    -0.14820
C746        C  0.13782363  0.01285448  0.10803126    -0.14820
C747        C  0.14397504  0.04234948  0.10274479     0.07330
C748        C  0.15839257  0.05830470  0.12548588    -0.14820
H749        H  0.17865022  0.05760929  0.16957929     0.11320
H750        H  0.14276096  0.47624695  0.13808442     0.11320
H751        H  0.12761001  0.49987317  0.09043441     0.11320
H752        H  0.16404058  0.08090792  0.12154215     0.11320
C753        C  0.22761147  0.36196176  0.20114483    -0.14820
C754        C  0.23983469  0.38996721  0.20078477     0.07330
C755        C  0.27004886  0.39279594  0.19652928    -0.14820
C756        C  0.28802399  0.36822312  0.19674480    -0.14820
C757        C  0.27609536  0.34045697  0.20169881     0.07330
C758        C  0.24561850  0.33739593  0.20179244    -0.14820
H759        H  0.20445317  0.35907348  0.20456377     0.11320
H760        H  0.28004871  0.41414977  0.19608111     0.11320
H761        H  0.31136764  0.37133918  0.19661784     0.11320
H762        H  0.23576918  0.31622706  0.20533911     0.11320
C763        C  0.15729350  0.33423646  0.31361855    -0.14820
C764        C  0.12681069  0.33337735  0.31417691     0.07330
C765        C  0.11109165  0.35947154  0.31258226    -0.14820
C766        C  0.12512955  0.38485005  0.30319775    -0.14820
C767        C  0.15502385  0.38429350  0.29667054     0.07330
C768        C  0.17144405  0.35974439  0.30483032    -0.14820
H769        H  0.16975195  0.31427297  0.31514276     0.11320
H770        H  0.08753117  0.35930549  0.31321826     0.11320
H771        H  0.11219920  0.40396898  0.29811087     0.11320
H772        H  0.19467672  0.35908765  0.30080723     0.11320
C773        C  0.42693423  0.99879779  0.13331037    -0.14820
C774        C  0.44201772  0.47987354  0.15287012     0.07330
C775        C  0.45459319  0.45448520  0.14059457    -0.14820
C776        C  0.44905780  0.44634188  0.11037067    -0.14820
C777        C  0.43077398  0.46342243  0.09214156     0.07330
C778        C  0.42112191  0.49045779  0.10319825    -0.14820
H779        H  0.41679411  0.01829008  0.14218124     0.11320
H780        H  0.46637327  0.43952294  0.15523479     0.11320
H781        H  0.45626754  0.42522016  0.10249256     0.11320
H782        H  0.40659286  0.00373777  0.08952751     0.11320
C783        C  0.32913765  0.02653232  0.26271240    -0.14820
C784        C  0.34152257  0.01201479  0.23760095     0.07330
C785        C  0.32306413  0.00064735  0.21508810    -0.14820
C786        C  0.29285692  0.00194943  0.21864493    -0.14820
C787        C  0.28051062  0.01413415  0.24502154     0.07330
C788        C  0.29883174  0.02714104  0.26665335    -0.14820
H789        H  0.34288978  0.03502462  0.28065953     0.11320
H790        H  0.33202934  0.98918370  0.19564668     0.11320
H791        H  0.27920022  0.99090732  0.20220208     0.11320
H792        H  0.28985247  0.03565724  0.28770400     0.11320
C793        C  0.04199692  0.50478450  0.23175538    -0.14820
C794        C  0.03046161  0.01259494  0.26029294     0.07330
C795        C  0.04949514  0.01605010  0.28516739    -0.14820
C796        C  0.07937253  0.01094227  0.28176923    -0.14820
C797        C  0.09058971  0.00141766  0.25366835     0.07330
C798        C  0.07168648  0.49891472  0.22857132    -0.14820
H799        H  0.02780613  0.50149777  0.21233918     0.11320
H800        H  0.04110979  0.02181652  0.30748860     0.11320
H801        H  0.09345807  0.01307107  0.30144374     0.11320
H802        H  0.07981729  0.49188167  0.20654784     0.11320
C803        C  0.38666098  0.52969490  0.35226391    -0.14820
C804        C  0.41298979  0.04077111  0.34058912     0.07330
C805        C  0.42892600  0.06055706  0.35805173    -0.14820
C806        C  0.42059591  0.06620781  0.38824367    -0.14820
C807        C  0.39617874  0.05222796  0.40122617     0.07330
C808        C  0.37813779  0.03559455  0.38233763    -0.14820
H809        H  0.37425908  0.51406083  0.33916566     0.11320
H810        H  0.44949235  0.06893063  0.34968217     0.11320
H811        H  0.43488745  0.07914083  0.40240038     0.11320
H812        H  0.35945146  0.52432237  0.39178270     0.11320
C813        C  0.02087013  0.39620184  0.25466120    -0.14820
C814        C  0.49046230  0.39386423  0.25561084     0.07330
C815        C  0.47763510  0.36606769  0.25561432    -0.14820
C816        C  0.49496910  0.34106193  0.25629994    -0.14820
C817        C  0.02540284  0.34344956  0.25620986     0.07330
C818        C  0.03816493  0.37123749  0.25461396    -0.14820
H819        H  0.03128667  0.41735804  0.25454993     0.11320
H820        H  0.45422105  0.36366386  0.25645599     0.11320
H821        H  0.48460661  0.31990157  0.25737626     0.11320
H822        H  0.06158714  0.37373370  0.25464367     0.11320
C823        C  0.40845520  0.37812000  0.31011729    -0.14820
C824        C  0.39182259  0.40354647  0.31303973     0.07330
C825        C  0.36142360  0.40173869  0.31208869    -0.14820
C826        C  0.34825787  0.37628323  0.30201539    -0.14820
C827        C  0.36553742  0.35267090  0.29292290     0.07330
C828        C  0.39539382  0.35282072  0.29939707    -0.14820
H829        H  0.43198038  0.37899653  0.31109641     0.11320
H830        H  0.34825964  0.42113226  0.31463891     0.11320
H831        H  0.32500265  0.37630322  0.29818102     0.11320
H832        H  0.40897229  0.33436290  0.29367542     0.11320
Fe833      Fe  0.45820405  0.97064934  0.29732570     1.65780
Fe834      Fe  0.41420621  0.95129186  0.24122526     1.73250
Fe835      Fe  0.43632445  0.52038616  0.24574716     1.54410
O836        O  0.43499372  0.53730473  0.29078454    -0.83150
O837        O  0.43479576  0.95843322  0.20070234    -0.81450
O838        O  0.43230816  0.99807436  0.32124658    -0.85650
O839        O  0.48895357  0.00310745  0.29057136    -0.80510
O840        O  0.39135754  0.52267224  0.24727384    -0.82280
O841        O  0.44578087  0.91935677  0.25053640    -0.85030
C842        C  0.49860187  0.51213624  0.26508113     0.95740
C843        C  0.42738455  0.52474718  0.31581486     1.03180
O844        O  0.43650305  0.98086788  0.26084517    -1.14010
O845        O  0.39288007  0.94422561  0.28151106    -0.76440
O846        O  0.43146534  0.93612574  0.30999120    -0.79930
O847        O  0.48143193  0.51893046  0.24348045    -0.80620
C848        C  0.40543277  0.93050373  0.30272139     0.94640
O849        O  0.48312044  0.94212960  0.27262963    -0.78580
O850        O  0.38002930  0.97890347  0.22926755    -0.83770
C851        C  0.43819298  0.48221494  0.18635792     0.97260
C852        C  0.37283234  0.50439869  0.23765009     1.03180
O853        O  0.43613293  0.50704793  0.19942199    -0.79410
C854        C  0.47229885  0.92010570  0.25925383     1.01480
Fe855      Fe  0.22081433  0.94694929  0.27067614     1.65780
Fe856      Fe  0.16366818  0.94675637  0.22342462     1.73250
Fe857      Fe  0.18471203  0.50964067  0.25625439     1.54410
O858        O  0.19140362  0.50575808  0.30373616    -0.83150
O859        O  0.17364964  0.97287444  0.18667539    -0.81450
O860        O  0.20651439  0.96013562  0.31198930    -0.85650
O861        O  0.25050020  0.98008494  0.26815295    -0.80510
O862        O  0.14081611  0.50561887  0.26623801    -0.82280
O863        O  0.19541595  0.91574863  0.21078429    -0.85030
C864        C  0.25131286  0.50408849  0.25398249     0.95740
C865        C  0.19585651  0.98383005  0.32126203     1.03180
O866        O  0.18985955  0.96820187  0.24989613    -1.14010
O867        O  0.15150114  0.92197028  0.26028891    -0.76440
O868        O  0.19546097  0.91018005  0.27726913    -0.79930
O869        O  0.22848428  0.51768510  0.24586172    -0.80620
C870        C  0.16801704  0.90715736  0.27753137     0.94640
O871        O  0.23664846  0.93251416  0.22988230    -0.78580
O872        O  0.12781295  0.97305731  0.23154531    -0.83770
C873        C  0.17147721  0.50056299  0.18613047     0.97260
C874        C  0.12151276  0.49293632  0.25046650     1.03180
O875        O  0.17470525  0.51631783  0.20997728    -0.79410
C876        C  0.22303498  0.91468527  0.21333661     1.01480
Fe877      Fe  0.43038307  0.83013863  0.52201184     1.65780
Fe878      Fe  0.43139282  0.77274938  0.47541571     1.73250
Fe879      Fe  0.36815008  0.79350858  0.50759140     1.54420
O880        O  0.37157567  0.80058185  0.55509065    -0.83150
O881        O  0.40585618  0.78251326  0.43854439    -0.81450
O882        O  0.41718135  0.81555762  0.56328470    -0.85650
O883        O  0.39695585  0.85946700  0.51963977    -0.80510
O884        O  0.37219560  0.74964606  0.51813402    -0.82280
O885        O  0.46211373  0.80471975  0.46260938    -0.85030
C886        C  0.37357731  0.86017509  0.50458280     0.95740
C887        C  0.39347869  0.80478354  0.57255763     1.03180
O888        O  0.40955327  0.79888736  0.50148025    -1.14010
O889        O  0.45576732  0.76096730  0.51246976    -0.76440
O890        O  0.46740654  0.80524691  0.52853897    -0.79930
O891        O  0.36027509  0.83722583  0.49635697    -0.80620
C892        C  0.47062894  0.77780475  0.52915544     0.94640
O893        O  0.44479123  0.84602458  0.48105502    -0.78580
O894        O  0.40519372  0.73677578  0.48366598    -0.83770
C895        C  0.37829820  0.77972563  0.43774572     0.97260
C896        C  0.38509963  0.73039041  0.50245453     1.03180
O897        O  0.36209968  0.78291024  0.46137651    -0.79410
C898        C  0.46282177  0.83240541  0.46466711     1.01480
Fe899      Fe  0.40978357  0.56608293  0.54553544     1.65780
Fe900      Fe  0.42754728  0.52346612  0.48768663     1.73250
Fe901      Fe  0.35859698  0.54509158  0.49564104     1.54420
O902        O  0.34296896  0.54316430  0.54127726    -0.83150
O903        O  0.41894732  0.54515653  0.44813733    -0.81450
O904        O  0.38298488  0.53972953  0.57007294    -0.85650
O905        O  0.37730407  0.59709144  0.54049977    -0.80510
O906        O  0.35653504  0.00011440  0.49672912    -0.82280
O907        O  0.45974891  0.55502708  0.49634749    -0.85030
C908        C  0.36723824  0.60708404  0.51561808     0.95740
C909        C  0.35614928  0.53510063  0.56569867     1.03180
O910        O  0.39853805  0.54509169  0.50912380    -1.14010
O911        O  0.43633538  0.50094307  0.52684602    -0.76440
O912        O  0.44436961  0.53879636  0.55647091    -0.79930
O913        O  0.35988283  0.59024359  0.49400900    -0.80620
C914        C  0.44966133  0.51280136  0.54865096     0.94640
O915        O  0.43759128  0.59166239  0.52033517    -0.78580
O916        O  0.39953450  0.98931867  0.47630477    -0.83770
C917        C  0.39476088  0.54821660  0.43474800     0.97260
C918        C  0.37448143  0.98178934  0.48602916     1.03180
O919        O  0.37039538  0.54550870  0.44874722    -0.79410
C920        C  0.45916911  0.58136837  0.50571601     1.01480
Fe921      Fe  0.21046434  0.71764582  0.79459963     1.65780
Fe922      Fe  0.16709872  0.70025829  0.73725246     1.73250
Fe923      Fe  0.18856478  0.76928053  0.74521535     1.54410
O924        O  0.18736138  0.78439989  0.79096526    -0.83150
O925        O  0.18800086  0.70940693  0.69737773    -0.81450
O926        O  0.18429311  0.74401902  0.81958916    -0.85650
O927        O  0.24114578  0.75046649  0.78936143    -0.80510
O928        O  0.14366956  0.77112956  0.74699654    -0.82280
O929        O  0.19898887  0.66819562  0.74522807    -0.85030
C930        C  0.25077865  0.76094360  0.76445672     0.95740
C931        C  0.17952577  0.77091289  0.81537377     1.03180
O932        O  0.18892450  0.72916349  0.75850470    -1.14010
O933        O  0.14530256  0.69086126  0.77669495    -0.76440
O934        O  0.18360284  0.68267378  0.80573084    -0.79930
O935        O  0.23367455  0.76824986  0.74296113    -0.80620
C936        C  0.15751478  0.67738624  0.79830618     0.94640
O937        O  0.23582062  0.69028594  0.76891389    -0.78580
O938        O  0.13263064  0.72823746  0.72660398    -0.83770
C939        C  0.19042992  0.73378157  0.68401680     0.97260
C940        C  0.12523189  0.75322748  0.73647313     1.03180
O941        O  0.18804965  0.75800001  0.69822547    -0.79410
C942        C  0.22543735  0.66882080  0.75425683     1.01480
Fe943      Fe  0.47298060  0.69910493  0.77192938     1.65780
Fe944      Fe  0.41658561  0.69911540  0.72385105     1.73250
Fe945      Fe  0.43717643  0.76175178  0.75718039     1.54420
O946        O  0.44404279  0.75768667  0.80472733    -0.83150
O947        O  0.42668096  0.72556339  0.68748557    -0.81450
O948        O  0.45731776  0.71146980  0.81290452    -0.85650
O949        O  0.50225095  0.73276983  0.77120125    -0.80510
O950        O  0.39325034  0.75767146  0.76719182    -0.82280
O951        O  0.44888374  0.66876755  0.71120277    -0.85030
C952        C  0.50358738  0.75574852  0.75531005     0.95740
C953        C  0.44723425  0.73542467  0.82213471     1.03180
O954        O  0.44227716  0.72037452  0.75080386    -1.14010
O955        O  0.40423078  0.67372394  0.76016806    -0.76440
O956        O  0.44815082  0.66179132  0.77703396    -0.79930
O957        O  0.48097885  0.76916519  0.74621560    -0.80620
C958        C  0.42075819  0.65844241  0.77691454     0.94640
O959        O  0.48979389  0.68552912  0.73120695    -0.78580
O960        O  0.38060320  0.72516511  0.73218824    -0.83770
C961        C  0.42371004  0.75314716  0.68714236     0.97260
C962        C  0.37410740  0.74492909  0.75120203     1.03180
O963        O  0.42678683  0.76880451  0.71105718    -0.79410
C964        C  0.47648537  0.66783714  0.71417680     1.01480
Fe965      Fe  0.15985969  0.81615621  0.04543286     1.65780
Fe966      Fe  0.17843869  0.77360540  0.98782360     1.73250
Fe967      Fe  0.10936168  0.79466987  0.99512581     1.54410
O968        O  0.09315705  0.79379432  0.04054444    -0.83150
O969        O  0.17004142  0.79526910  0.94818113    -0.81450
O970        O  0.13277813  0.79002873  0.06988102    -0.85650
O971        O  0.12732442  0.84700957  0.03956390    -0.80510
O972        O  0.10760564  0.74973415  0.99705123    -0.82280
O973        O  0.21042962  0.80533796  0.99676754    -0.85030
C974        C  0.11753035  0.85676873  0.01443705     0.95740
C975        C  0.10584373  0.78618431  0.06539335     1.03180
O976        O  0.14913592  0.79499454  0.00901900    -1.14010
O977        O  0.18700590  0.75112762  0.02703173    -0.76440
O978        O  0.19446195  0.78893404  0.05692370    -0.79930
O979        O  0.11061099  0.83975873  0.99279893    -0.80620
C980        C  0.19999714  0.76297903  0.04905942     0.94640
O981        O  0.18773896  0.84176485  0.02050340    -0.78580
O982        O  0.15056655  0.73933077  0.97626411    -0.83770
C983        C  0.14592415  0.79696629  0.93442888     0.97260
C984        C  0.12563526  0.73156537  0.98619232     1.03180
O985        O  0.12154571  0.79400147  0.94833664    -0.79410
C986        C  0.20951960  0.83167889  0.00611184     1.01480
Fe987      Fe  0.18039590  0.57919942  0.02061902     1.65780
Fe988      Fe  0.18078105  0.52231172  0.97329223     1.73250
Fe989      Fe  0.11793668  0.54315150  0.00628042     1.54410
O990        O  0.12171941  0.55000422  0.05378165    -0.83150
O991        O  0.15476904  0.53220526  0.93665315    -0.81450
O992        O  0.16768748  0.56385626  0.06181597    -0.85650
O993        O  0.14693963  0.60854500  0.01938645    -0.80510
O994        O  0.12187928  0.99924752  0.01656108    -0.82280
O995        O  0.21142821  0.55443148  0.96052894    -0.85030
C996        C  0.12383451  0.60968813  0.00391332     0.95740
C997        C  0.14384712  0.55340517  0.07112657     1.03180
O998        O  0.15928903  0.54830502  0.99982069    -1.14010
O999        O  0.20550572  0.51019378  0.01007030    -0.76440
O1000       O  0.21744806  0.55434775  0.02611951    -0.79930
O1001       O  0.11042584  0.58696706  0.99520876    -0.80620
C1002       C  0.22038005  0.52690511  0.02689156     0.94640
O1003       O  0.19439251  0.59560202  0.97969191    -0.78580
O1004       O  0.15455322  0.98640224  0.98169629    -0.83770
C1005       C  0.12717039  0.52946133  0.93628412     0.97260
C1006       C  0.13463726  0.98001783  0.00070321     1.03180
O1007       O  0.11135665  0.53271636  0.96016975    -0.79410
C1008       C  0.21235865  0.58208936  0.96309205     1.01480
Fe1009     Fe  0.11062791  0.66906453  0.54589016     1.65780
Fe1010     Fe  0.09219283  0.71268297  0.48866100     1.73250
Fe1011     Fe  0.16131560  0.69119039  0.49547058     1.54410
O1012       O  0.17728829  0.69263197  0.54092177    -0.83150
O1013       O  0.10060381  0.69192526  0.44866130    -0.81450
O1014       O  0.13750011  0.69517567  0.57029646    -0.85650
O1015       O  0.14319097  0.63830399  0.54017245    -0.80510
O1016       O  0.16320864  0.73611664  0.49674147    -0.82280
O1017       O  0.06029861  0.68074324  0.49729914    -0.85030
C1018       C  0.15321134  0.62882545  0.51511299     0.95740
C1019       C  0.16421321  0.70030948  0.56552238     1.03180
O1020       O  0.12147281  0.69076867  0.50949034    -1.14010
O1021       O  0.08353250  0.73436748  0.52819543    -0.76440
O1022       O  0.07606806  0.69596204  0.55764954    -0.79930
O1023       O  0.16029844  0.64607649  0.49356434    -0.80620
C1024       C  0.07070961  0.72211964  0.55028942     0.94640
O1025       O  0.08267246  0.64379410  0.52083479    -0.78580
O1026       O  0.11988051  0.74724370  0.47739158    -0.83770
C1027       C  0.12470409  0.68898982  0.43498304     0.97260
C1028       C  0.14508374  0.75460763  0.48661626     1.03180
O1029       O  0.14915916  0.69137025  0.44873713    -0.79410
C1030       C  0.06103492  0.65423566  0.50639620     1.01480
Fe1031     Fe  0.09237203  0.90623633  0.52261867     1.65780
Fe1032     Fe  0.09169616  0.96251685  0.47401362     1.73250
Fe1033     Fe  0.15451633  0.94246957  0.50734015     1.54410
O1034       O  0.15060944  0.93536858  0.55496835    -0.83150
O1035       O  0.11809288  0.95279998  0.43773720    -0.81450
O1036       O  0.10427066  0.92266431  0.56329283    -0.85650
O1037       O  0.12660440  0.87763271  0.52300477    -0.80510
O1038       O  0.15019151  0.98632706  0.51720895    -0.82280
O1039       O  0.06204238  0.92955184  0.46145467    -0.85030
C1040       C  0.14873810  0.87617656  0.50597996     0.95740
C1041       C  0.12832713  0.93258999  0.57238149     1.03180
O1042       O  0.11322749  0.93712197  0.50115252    -1.14010
O1043       O  0.06620680  0.97449442  0.51018964    -0.76440
O1044       O  0.05456943  0.93031303  0.52685078    -0.79930
O1045       O  0.16183528  0.89877935  0.49623849    -0.80620
C1046       C  0.05102088  0.95769440  0.52681091     0.94640
O1047       O  0.07940836  0.88890699  0.48200500    -0.78580
O1048       O  0.11729860  0.99887569  0.48236372    -0.83770
C1049       C  0.14562620  0.95578017  0.43725685     0.97260
C1050       C  0.13709905  0.50545538  0.50132645     1.03180
O1051       O  0.16139925  0.95299233  0.46116784    -0.79410
C1052       C  0.06168174  0.90188140  0.46457975     1.01480
Fe1053     Fe  0.31176186  0.51740788  0.79545352     1.65780
Fe1054     Fe  0.35582737  0.53479877  0.73827706     1.73250
Fe1055     Fe  0.33350410  0.96593565  0.74623540     1.54420
O1056       O  0.33413057  0.95031291  0.79198278    -0.83150
O1057       O  0.33491818  0.52628957  0.69844461    -0.81450
O1058       O  0.33700883  0.99031185  0.82084075    -0.85650
O1059       O  0.28053572  0.98520904  0.78992801    -0.80510
O1060       O  0.37839630  0.96360693  0.74816969    -0.82280
O1061       O  0.32443414  0.56730584  0.74619226    -0.85030
C1062       C  0.27115579  0.97487505  0.76499709     0.95740
C1063       C  0.34125144  0.96335439  0.81672610     1.03180
O1064       O  0.33353714  0.50592971  0.75953450    -1.14010
O1065       O  0.37752805  0.54351602  0.77776462    -0.76440
O1066       O  0.33912555  0.55182505  0.80671910    -0.79930
O1067       O  0.28845434  0.96744985  0.74373454    -0.80620
C1068       C  0.36527171  0.55703166  0.79923997     0.94640
O1069       O  0.28712628  0.54537077  0.76954290    -0.78580
O1070       O  0.38991818  0.50649168  0.72754464    -0.83770
C1071       C  0.33198166  0.00206459  0.68512470     0.97260
C1072       C  0.39703205  0.98138883  0.73752811     1.03180
O1073       O  0.33428449  0.97768014  0.69927136    -0.79410
C1074       C  0.29787902  0.56685016  0.75495381     1.01480
Fe1075     Fe  0.04896233  0.53615167  0.77225958     1.65780
Fe1076     Fe  0.10515436  0.53676376  0.72367175     1.73250
Fe1077     Fe  0.08501018  0.97379935  0.75723852     1.54420
O1078       O  0.07837979  0.97736075  0.80485669    -0.83150
O1079       O  0.09473607  0.01072824  0.68744678    -0.81450
O1080       O  0.06474313  0.52335853  0.81309325    -0.85650
O1081       O  0.01972076  0.00242251  0.77147674    -0.80510
O1082       O  0.12886331  0.97812765  0.76694882    -0.82280
O1083       O  0.07278581  0.56722121  0.71137994    -0.85030
C1084       C  0.01854525  0.97937559  0.75590014     0.95740
C1085       C  0.07509607  0.99945948  0.82225100     1.03180
O1086       O  0.07964207  0.51518739  0.75086299    -1.14010
O1087       O  0.11767556  0.56170822  0.75989713    -0.76440
O1088       O  0.07385614  0.57340413  0.77734821    -0.79930
O1089       O  0.04122890  0.96614857  0.74673938    -0.80620
C1090       C  0.10126396  0.57671500  0.77695059     0.94640
O1091       O  0.03197306  0.55024424  0.73173558    -0.78580
O1092       O  0.14130855  0.51070842  0.73156800    -0.83770
C1093       C  0.09800984  0.98319150  0.68701577     0.97260
C1094       C  0.14792815  0.99100361  0.75078474     1.03180
O1095       O  0.09528376  0.96726946  0.71097753    -0.79410
C1096       C  0.04519416  0.56807030  0.71454353     1.01480
Fe1097     Fe  0.06022234  0.76660514  0.29711649     1.65780
Fe1098     Fe  0.10207552  0.78802409  0.23981186     1.73250
Fe1099     Fe  0.08426946  0.71796293  0.24541554     1.54410
O1100       O  0.08586831  0.70052090  0.29034483    -0.83150
O1101       O  0.08020438  0.78002057  0.20036348    -0.81450
O1102       O  0.08681658  0.73945219  0.32086164    -0.85650
O1103       O  0.03032680  0.73349553  0.29000560    -0.80510
O1104       O  0.12949088  0.71809804  0.24709283    -0.82280
O1105       O  0.07027300  0.81890743  0.25032528    -0.85030
C1106       C  0.02143260  0.72394767  0.26451668     0.95740
C1107       C  0.09253058  0.71297818  0.31553404     1.03180
O1108       O  0.08193482  0.75740465  0.26042677    -1.14010
O1109       O  0.12456899  0.79594438  0.27900538    -0.76440
O1110       O  0.08672748  0.80133682  0.30968214    -0.79930
O1111       O  0.03910766  0.71749078  0.24318337    -0.80620
C1112       C  0.11251682  0.80771842  0.30175584     0.94640
O1113       O  0.03403604  0.79501808  0.27322113    -0.78580
O1114       O  0.13642432  0.76177837  0.22641747    -0.83770
C1115       C  0.07990415  0.75622228  0.18587580     0.97260
C1116       C  0.14628065  0.73789856  0.23694169     1.03180
O1117       O  0.08433732  0.73165564  0.19908119    -0.79410
C1118       C  0.04401568  0.81746076  0.25965428     1.01480
Fe1119     Fe  0.30258325  0.78836802  0.27344886     1.65780
Fe1120     Fe  0.35600253  0.78792581  0.22255010     1.73250
Fe1121     Fe  0.33494608  0.72534017  0.25676052     1.54420
O1122       O  0.32885501  0.72993108  0.30476774    -0.83150
O1123       O  0.34496816  0.76135931  0.18697553    -0.81450
O1124       O  0.32262511  0.77773270  0.31259377    -0.85650
O1125       O  0.27596434  0.75313145  0.27921368    -0.80510
O1126       O  0.37920430  0.72816411  0.26542830    -0.82280
O1127       O  0.32215081  0.81716534  0.21046909    -0.85030
C1128       C  0.27002726  0.73473427  0.25896415     0.95740
C1129       C  0.32945313  0.75257732  0.32192204     1.03180
O1130       O  0.33153146  0.76686122  0.25067674    -1.14010
O1131       O  0.36941790  0.81382712  0.25797842    -0.76440
O1132       O  0.32559908  0.82676874  0.27335507    -0.79930
O1133       O  0.29033062  0.72037097  0.24627133    -0.80620
C1134       C  0.35294076  0.82952506  0.27421957     0.94640
O1135       O  0.28264269  0.79955814  0.23341929    -0.78580
O1136       O  0.39213214  0.76180581  0.23096518    -0.83770
C1137       C  0.34784755  0.73381318  0.18655415     0.97260
C1138       C  0.39844345  0.74142004  0.24965352     1.03180
O1139       O  0.34474846  0.71799505  0.21052250    -0.79410
C1140       C  0.29456047  0.81704930  0.21472119     1.01480
Fe1141     Fe  0.34239707  0.65595271  0.02281049     1.65780
Fe1142     Fe  0.34143523  0.71223158  0.97393257     1.73250
Fe1143     Fe  0.40453825  0.69212991  0.00701274     1.54410
O1144       O  0.40082438  0.68531057  0.05466455    -0.83150
O1145       O  0.36803155  0.70321670  0.93751156    -0.81450
O1146       O  0.35452350  0.67268626  0.06331076    -0.85650
O1147       O  0.37668466  0.62733282  0.02310562    -0.80510
O1148       O  0.40022849  0.73589095  0.01664641    -0.82280
O1149       O  0.31222208  0.67895326  0.96110049    -0.85030
C1150       C  0.39929001  0.62585592  0.00675158     0.95740
C1151       C  0.37858399  0.68278489  0.07215538     1.03180
O1152       O  0.36315888  0.68676699  0.00096724    -1.14010
O1153       O  0.31572353  0.72389640  0.01002759    -0.76440
O1154       O  0.30448833  0.67986088  0.02730073    -0.79930
O1155       O  0.41207495  0.64840391  0.99643082    -0.80620
C1156       C  0.30079495  0.70721268  0.02699379     0.94640
O1157       O  0.32903724  0.63836311  0.98242997    -0.78580
O1158       O  0.36634307  0.74892233  0.98292645    -0.83770
C1159       C  0.39560081  0.70590989  0.93704163     0.97260
C1160       C  0.38623509  0.75512233  0.00187724     1.03180
O1161       O  0.41135307  0.70255658  0.96087494    -0.79410
C1162       C  0.31161850  0.65131357  0.96460958     1.01480
Fe1163     Fe  0.36008791  0.91994154  0.04854764     1.65780
Fe1164     Fe  0.34169590  0.96421455  0.99213682     1.73250
Fe1165     Fe  0.41040937  0.94029659  0.99710077     1.54420
O1166       O  0.42691725  0.94158953  0.04242263    -0.83150
O1167       O  0.34891258  0.94444310  0.95137842    -0.81450
O1168       O  0.38751303  0.94592893  0.07230227    -0.85650
O1169       O  0.39249247  0.88951037  0.04277014    -0.80510
O1170       O  0.41373034  0.98521974  0.99804816    -0.82280
O1171       O  0.30963309  0.93225707  0.00050355    -0.85030
C1172       C  0.40061978  0.87863170  0.01766607     0.95740
C1173       C  0.41440528  0.94979829  0.06719831     1.03180
O1174       O  0.37081212  0.94128615  0.01190686    -1.14010
O1175       O  0.33419177  0.98523722  0.03240384    -0.76440
O1176       O  0.32551550  0.94649197  0.06064652    -0.79930
O1177       O  0.40817969  0.89498515  0.99552028    -0.80620
C1178       C  0.32038088  0.97271012  0.05360152     0.94640
O1179       O  0.33195419  0.89493367  0.02361215    -0.78580
O1180       O  0.36989973  0.99838019  0.98128859    -0.83770
C1181       C  0.37254853  0.93994643  0.93728501     0.97260
C1182       C  0.39581232  0.50451430  0.98922202     1.03180
O1183       O  0.39735446  0.94060845  0.95059298    -0.79410
C1184       C  0.31043129  0.90556674  0.00911682     1.01480
C1185       C  0.39781858  0.58488670  0.97067623    -0.14820
C1186       C  0.40853774  0.59634788  0.99813850     0.07330
C1187       C  0.41911658  0.57717214  0.02058922    -0.14820
C1188       C  0.41760556  0.54697821  0.01626261    -0.14820
C1189       C  0.40445737  0.53554138  0.98992126     0.07330
C1190       C  0.39542832  0.55474319  0.96675365    -0.14820
H1191       H  0.38859247  0.59924090  0.95352904     0.11320
H1192       H  0.42645998  0.58549609  0.04238091     0.11320
H1193       H  0.42425134  0.53262248  0.03468815     0.11320
H1194       H  0.38499274  0.54645841  0.94639308     0.11320
C1195       C  0.38284697  0.83011706  0.03535336    -0.14820
C1196       C  0.39980405  0.84650766  0.01461360     0.07330
C1197       C  0.41348566  0.83208526  0.99024103    -0.14820
C1198       C  0.40989250  0.80195865  0.98656427    -0.14820
C1199       C  0.39258740  0.78598692  0.00716167     0.07330
C1200       C  0.37924547  0.80020048  0.03160996    -0.14820
H1201       H  0.37150190  0.84057224  0.05403327     0.11320
H1202       H  0.42645078  0.84412765  0.97380332     0.11320
H1203       H  0.42007766  0.79120885  0.96733626     0.11320
H1204       H  0.36540913  0.78824870  0.04735189     0.11320
C1205       C  0.36792260  0.73751333  0.13337185    -0.14820
C1206       C  0.35747929  0.72008045  0.15761356     0.07330
C1207       C  0.35895398  0.68964477  0.15479430    -0.14820
C1208       C  0.36897680  0.67702302  0.12767542    -0.14820
C1209       C  0.37855246  0.69454098  0.10325611     0.07330
C1210       C  0.37850373  0.72485430  0.10657962    -0.14820
H1211       H  0.36765461  0.76102554  0.13491955     0.11320
H1212       H  0.35158335  0.67558614  0.17318519     0.11320
H1213       H  0.36787859  0.65361319  0.12512745     0.11320
H1214       H  0.38463885  0.73881528  0.08757567     0.11320
C1215       C  0.19310647  0.70804289  0.24059288    -0.14820
C1216       C  0.17838526  0.73497865  0.23904028     0.07330
C1217       C  0.19453922  0.76065590  0.24209153    -0.14820
C1218       C  0.22412780  0.75972942  0.24771476    -0.14820
C1219       C  0.23912283  0.73318707  0.24955862     0.07330
C1220       C  0.22353517  0.70716496  0.24530879    -0.14820
H1221       H  0.18111965  0.68787380  0.23856089     0.11320
H1222       H  0.18405087  0.78177735  0.24166232     0.11320
H1223       H  0.23516592  0.78014163  0.25156411     0.11320
H1224       H  0.23450717  0.68637907  0.24705314     0.11320
C1225       C  0.47047340  0.71799004  0.28401242    -0.14820
C1226       C  0.48967800  0.72261011  0.25937505     0.07330
C1227       C  0.47828027  0.73114334  0.23097258    -0.14820
C1228       C  0.44852292  0.73665847  0.22776050    -0.14820
C1229       C  0.42943455  0.73307631  0.25268301     0.07330
C1230       C  0.44055364  0.72274446  0.28056926    -0.14820
H1231       H  0.47876004  0.71168897  0.30623827     0.11320
H1232       H  0.49261409  0.73537243  0.21176772     0.11320
H1233       H  0.44049547  0.74434021  0.20589780     0.11320
H1234       H  0.42634649  0.71977823  0.30011723     0.11320
C1235       C  0.44001844  0.95864616  0.76347540    -0.14820
C1236       C  0.42834175  0.97361612  0.73816685     0.07330
C1237       C  0.44744573  0.98486909  0.71597288    -0.14820
C1238       C  0.47757102  0.98292452  0.72000422    -0.14820
C1239       C  0.48920601  0.97021418  0.74655018     0.07330
C1240       C  0.47022572  0.95742217  0.76790412    -0.14820
H1241       H  0.42579872  0.95016641  0.78117806     0.11320
H1242       H  0.43907350  0.99663374  0.69636142     0.11320
H1243       H  0.99174687  0.99382362  0.70376371     0.11320
H1244       H  0.47864836  0.94848696  0.78906586     0.11320
C1245       C  0.22045110  0.96992346  0.78551181    -0.14820
C1246       C  0.23933667  0.97347013  0.76041523     0.07330
C1247       C  0.22757011  0.98046232  0.73172798    -0.14820
C1248       C  0.19774124  0.98554644  0.72858611    -0.14820
C1249       C  0.17897073  0.98303326  0.75389903     0.07330
C1250       C  0.19045708  0.97422346  0.78217720    -0.14820
H1251       H  0.22902791  0.96475544  0.80793038     0.11320
H1252       H  0.24165243  0.98377892  0.71212835     0.11320
H1253       H  0.18939520  0.99204514  0.70643954     0.11320
H1254       H  0.17646982  0.97211236  0.80201895     0.11320
C1255       C  0.33642300  0.92998237  0.86117735    -0.14820
C1256       C  0.35411470  0.94751246  0.84266816     0.07330
C1257       C  0.38126275  0.95670177  0.85382922    -0.14820
C1258       C  0.38935812  0.95087679  0.88411042    -0.14820
C1259       C  0.37006903  0.93630259  0.90377467     0.07330
C1260       C  0.34431251  0.92447103  0.89154673    -0.14820
H1261       H  0.31518489  0.92321024  0.85325078     0.11320
H1262       H  0.39499093  0.97070772  0.83996291     0.11320
H1263       H  0.40908746  0.96053669  0.89295229     0.11320
H1264       H  0.32899432  0.91319251  0.90627271     0.11320
C1265       C  0.12082575  0.98650653  0.63506935    -0.14820
C1266       C  0.10770498  0.96947874  0.65815028     0.07330
C1267       C  0.10637719  0.93916455  0.65435668    -0.14820
C1268       C  0.11619768  0.92642303  0.62725672    -0.14820
C1269       C  0.12829972  0.94360965  0.60381385     0.07330
C1270       C  0.13120321  0.97365275  0.60826388    -0.14820
H1271       H  0.12281777  0.00985940  0.63756366     0.11320
H1272       H  0.09687127  0.92540302  0.67189580     0.11320
H1273       H  0.11292944  0.90331504  0.62386743     0.11320
H1274       H  0.13946725  0.98746803  0.59005947     0.11320
C1275       C  0.09861548  0.67169456  0.38858971    -0.14820
C1276       C  0.12311863  0.68541367  0.40143737     0.07330
C1277       C  0.14132696  0.70198594  0.38239937    -0.14820
C1278       C  0.13297813  0.70798202  0.35225682    -0.14820
C1279       C  0.10669260  0.69700752  0.34061374     0.07330
C1280       C  0.09049225  0.67739578  0.35831906    -0.14820
H1281       H  0.08417499  0.65882860  0.40285421     0.11320
H1282       H  0.16007086  0.71307824  0.39174193     0.11320
H1283       H  0.14553856  0.72355190  0.33901837     0.11320
H1284       H  0.06992339  0.66915013  0.35000505     0.11320
C1285       C  0.14255422  0.55532692  0.47905126    -0.14820
C1286       C  0.14498342  0.53653900  0.50440398     0.07330
C1287       C  0.15369068  0.54803302  0.53261990    -0.14820
C1288       C  0.15799936  0.57806617  0.53584390    -0.14820
C1289       C  0.15456614  0.59696459  0.51069079     0.07330
C1290       C  0.14764759  0.58517857  0.48207544    -0.14820
H1291       H  0.13613886  0.54696802  0.45694889     0.11320
H1292       H  0.15573560  0.53402265  0.55248398     0.11320
H1293       H  0.16310156  0.58665763  0.55821634     0.11320
H1294       H  0.14441296  0.59926096  0.46243708     0.11320
C1295       C  0.13966799  0.80539670  0.46623810    -0.14820
C1296       C  0.15266838  0.78601154  0.48702900     0.07330
C1297       C  0.16959183  0.79741648  0.51095475    -0.14820
C1298       C  0.17122103  0.82759363  0.51557009    -0.14820
C1299       C  0.15681114  0.84681265  0.49572031     0.07330
C1300       C  0.14194087  0.83548655  0.47041995    -0.14820
H1301       H  0.12640130  0.79726936  0.44771114     0.11320
H1302       H  0.17948448  0.78298942  0.52760182     0.11320
H1303       H  0.18187838  0.83578927  0.53584189     0.11320
H1304       H  0.12982547  0.84987150  0.45543028     0.11320
C1305       C  0.08292278  0.52265006  0.90361859    -0.14820
C1306       C  0.11308116  0.51983222  0.90762317     0.07330
C1307       C  0.12938745  0.50531906  0.88506969    -0.14820
C1308       C  0.11603456  0.49508341  0.85848044    -0.14820
C1309       C  0.08622727  0.49953483  0.85373339     0.07330
C1310       C  0.06971411  0.51294387  0.87676789    -0.14820
H1311       H  0.06968330  0.53323688  0.92078185     0.11320
H1312       H  0.15256296  0.50213220  0.88781259     0.11320
H1313       H  0.12939358  0.48571003  0.84062390     0.11320
H1314       H  0.04680929  0.01740166  0.87318630     0.11320
C1315       C  0.26009588  0.64666912  0.94776096    -0.14820
C1316       C  0.28759634  0.63389303  0.95151962     0.07330
C1317       C  0.28989228  0.60335937  0.95043359    -0.14820
C1318       C  0.26490458  0.58597242  0.94977319    -0.14820
C1319       C  0.23724289  0.59886695  0.95065365     0.07330
C1320       C  0.23509691  0.62929363  0.94757733    -0.14820
H1321       H  0.25758509  0.67009121  0.94857266     0.11320
H1322       H  0.31084120  0.59289176  0.95311220     0.11320
H1323       H  0.26727885  0.56262160  0.95221963     0.11320
H1324       H  0.21402802  0.63981664  0.94806203     0.11320
C1325       C  0.26734356  0.53107860  0.05438709    -0.14820
C1326       C  0.24318457  0.51423154  0.04610622     0.07330
C1327       C  0.24288062  0.98434303  0.05285237    -0.14820
C1328       C  0.26822326  0.97073077  0.06270310    -0.14820
C1329       C  0.29403852  0.98687658  0.06457116     0.07330
C1330       C  0.29283222  0.51735832  0.06363675    -0.14820
H1331       H  0.26774700  0.55433466  0.05022974     0.11320
H1332       H  0.22403251  0.97110470  0.04770090     0.11320
H1333       H  0.26864451  0.94715642  0.06368211     0.11320
H1334       H  0.31255045  0.53014354  0.06544480     0.11320
C1335       C  0.11312920  0.90730980  0.03531331    -0.14820
C1336       C  0.11624135  0.88867144  0.01007332     0.07330
C1337       C  0.12293945  0.90073147  0.98137755    -0.14820
C1338       C  0.12823742  0.93056671  0.97835489    -0.14820
C1339       C  0.12624980  0.94906017  0.00380165     0.07330
C1340       C  0.11766543  0.93733926  0.03210491    -0.14820
H1341       H  0.10816782  0.89850349  0.05774161     0.11320
H1342       H  0.12589277  0.88685909  0.96165842     0.11320
H1343       H  0.13453637  0.93913093  0.95618494     0.11320
H1344       H  0.11595640  0.95113826  0.05203177     0.11320
C1345       C  0.13076398  0.68132774  0.96478402    -0.14820
C1346       C  0.11827600  0.70009607  0.98638306     0.07330
C1347       C  0.10212984  0.68797166  0.01070436    -0.14820
C1348       C  0.10085069  0.65766693  0.01485615    -0.14820
C1349       C  0.11484404  0.63904255  0.99419128     0.07330
C1350       C  0.12885018  0.65112115  0.96854128    -0.14820
H1351       H  0.14341032  0.69001742  0.94591308     0.11320
H1352       H  0.09263818  0.70190976  0.02794810     0.11320
H1353       H  0.09090657  0.64890064  0.03540135     0.11320
H1354       H  0.14067092  0.63721763  0.95290529     0.11320
C1355       C  0.06507525  0.78354769  0.13890545    -0.14820
C1356       C  0.07729520  0.75835516  0.15221160     0.07330
C1357       C  0.09275384  0.73903761  0.13352385    -0.14820
C1358       C  0.09910535  0.74669123  0.10324150    -0.14820
C1359       C  0.08959263  0.77341302  0.09108659     0.07330
C1360       C  0.07114420  0.79099610  0.10849336    -0.14820
H1361       H  0.05298355  0.79881777  0.15279064     0.11320
H1362       H  0.10260426  0.71965118  0.14313666     0.11320
H1363       H  0.11373882  0.73304040  0.09019071     0.11320
H1364       H  0.06404852  0.81190644  0.09973120     0.11320
C1365       C  0.22649809  0.71758617  0.05946037    -0.14820
C1366       C  0.22575754  0.74809955  0.06068370     0.07330
C1367       C  0.25190641  0.76378289  0.06017217    -0.14820
C1368       C  0.27753561  0.74977533  0.05183183    -0.14820
C1369       C  0.27715280  0.71994357  0.04502318     0.07330
C1370       C  0.25223508  0.70347485  0.05165515    -0.14820
H1371       H  0.20648596  0.70514122  0.06009015     0.11320
H1372       H  0.25183749  0.78734748  0.06121179     0.11320
H1373       H  0.29688818  0.76271637  0.04782817     0.11320
H1374       H  0.25167013  0.68029977  0.04727083     0.11320
C1375       C  0.26329327  0.83844846  0.00151615    -0.14820
C1376       C  0.23527451  0.85059377  0.00213152     0.07330
C1377       C  0.23228615  0.88104157  0.00205536    -0.14820
C1378       C  0.25684370  0.89899084  0.00257303    -0.14820
C1379       C  0.28482290  0.88680371  0.00387403     0.07330
C1380       C  0.28784241  0.85638518  0.00272804    -0.14820
H1381       H  0.26622002  0.81505439  0.00177422     0.11320
H1382       H  0.21092361  0.89095565  0.00245251     0.11320
H1383       H  0.25388494  0.92235852  0.00356497     0.11320
H1384       H  0.30918299  0.84644763  0.00357565     0.11320
C1385       C  0.40676298  0.74035803  0.85892158    -0.14820
C1386       C  0.43641049  0.73527756  0.85376072     0.07330
C1387       C  0.45287527  0.72145665  0.87663992    -0.14820
C1388       C  0.43973991  0.71198685  0.90378419    -0.14820
C1389       C  0.40969398  0.71543626  0.90820332     0.07330
C1390       C  0.39347016  0.73033209  0.88578051    -0.14820
H1391       H  0.39343270  0.75007886  0.84120711     0.11320
H1392       H  0.47562790  0.71661009  0.87275763     0.11320
H1393       H  0.45290203  0.70106782  0.92083534     0.11320
H1394       H  0.37038953  0.73398181  0.88884106     0.11320
C1395       C  0.02388192  0.64534297  0.69938688    -0.14820
C1396       C  0.49341768  0.64322214  0.70160936     0.07330
C1397       C  0.48044433  0.61562480  0.69964123    -0.14820
C1398       C  0.49768568  0.59053527  0.70001250    -0.14820
C1399       C  0.02816254  0.59266846  0.70188525     0.07330
C1400       C  0.04112262  0.62025191  0.69929372    -0.14820
H1401       H  0.03447785  0.66636438  0.70072014     0.11320
H1402       H  0.45706807  0.61326065  0.70141442     0.11320
H1403       H  0.48709397  0.56952557  0.70180886     0.11320
H1404       H  0.06450803  0.62262729  0.70076516     0.11320
C1405       C  0.42439993  0.60983923  0.80165506    -0.14820
C1406       C  0.40788044  0.63468457  0.79485917     0.07330
C1407       C  0.37800031  0.63485250  0.80144485    -0.14820
C1408       C  0.36407869  0.60909490  0.80977935    -0.14820
C1409       C  0.37990859  0.58302806  0.81049380     0.07330
C1410       C  0.41038234  0.58396955  0.80941559    -0.14820
H1411       H  0.44761241  0.60942963  0.79745563     0.11320
H1412       H  0.36500186  0.65412727  0.79730070     0.11320
H1413       H  0.34053035  0.60886820  0.81071703     0.11320
H1414       H  0.42293419  0.56403050  0.81021665     0.11320
C1415       C  0.17433259  0.74954542  0.63233257    -0.14820
C1416       C  0.19309860  0.73270363  0.65036337     0.07330
C1417       C  0.20786045  0.70915644  0.63679076    -0.14820
C1418       C  0.20129551  0.70047783  0.60693093    -0.14820
C1419       C  0.17968714  0.71509634  0.59045748     0.07330
C1420       C  0.16745101  0.74060060  0.60267731    -0.14820
H1421       H  0.16236333  0.76746088  0.64229836     0.11320
H1422       H  0.22232970  0.69572232  0.65034074     0.11320
H1423       H  0.21068287  0.68058680  0.59812406     0.11320
H1424       H  0.15051557  0.75204618  0.59032294     0.11320
C1425       C  0.08217525  0.77642266  0.76187016    -0.14820
C1426       C  0.09385750  0.76080255  0.73709719     0.07330
C1427       C  0.07474465  0.74898996  0.71544438    -0.14820
C1428       C  0.04462177  0.75109057  0.71951513    -0.14820
C1429       C  0.03297999  0.76456050  0.74556092     0.07330
C1430       C  0.05196553  0.77783861  0.76634848    -0.14820
H1431       H  0.09638756  0.78536235  0.77916737     0.11320
H1432       H  0.08310119  0.73673538  0.69624451     0.11320
H1433       H  0.03043843  0.73980572  0.70376008     0.11320
H1434       H  0.04353985  0.78735243  0.78717308     0.11320
C1435       C  0.29479267  0.75619131  0.73154492    -0.14820
C1436       C  0.28265876  0.76259021  0.76019080     0.07330
C1437       C  0.30124720  0.76568444  0.78550012    -0.14820
C1438       C  0.33129255  0.76142835  0.78241193    -0.14820
C1439       C  0.34310640  0.75312263  0.75415949     0.07330
C1440       C  0.32465128  0.75115735  0.72864213    -0.14820
H1441       H  0.28096947  0.75324523  0.71177671     0.11320
H1442       H  0.29239156  0.77040656  0.80789781     0.11320
H1443       H  0.34503918  0.76311180  0.80239877     0.11320
H1444       H  0.33326662  0.74506285  0.70650631     0.11320
C1445       C  0.17981157  0.80752861  0.85717187    -0.14820
C1446       C  0.16503051  0.78610743  0.84071692     0.07330
C1447       C  0.13950974  0.77388455  0.85309654    -0.14820
C1448       C  0.13059206  0.78069419  0.88280866    -0.14820
C1449       C  0.14748552  0.79935199  0.90075904     0.07330
C1450       C  0.17117660  0.81399594  0.88710851    -0.14820
H1451       H  0.19972339  0.81689339  0.84822566     0.11320
H1452       H  0.12794638  0.75709136  0.84075393     0.11320
H1453       H  0.11255388  0.76881999  0.89283163     0.11320
H1454       H  0.18464219  0.82839077  0.90058422     0.11320
C1455       C  0.24908338  0.59024856  0.74884515    -0.14820
C1456       C  0.27950407  0.59283248  0.74995240     0.07330
C1457       C  0.29206643  0.62071738  0.74920117    -0.14820
C1458       C  0.27448326  0.64555910  0.74937137    -0.14820
C1459       C  0.24403361  0.64296068  0.74958125     0.07330
C1460       C  0.23151727  0.61508360  0.74830903    -0.14820
H1461       H  0.23886116  0.56900112  0.74927576     0.11320
H1462       H  0.31545396  0.62333593  0.75019006     0.11320
H1463       H  0.28468381  0.66679731  0.75023099     0.11320
H1464       H  0.20811397  0.61243074  0.74861154     0.11320
C1465       C  0.14426044  0.59969588  0.80118018    -0.14820
C1466       C  0.11434227  0.60014279  0.79489984     0.07330
C1467       C  0.09804873  0.62505161  0.80181589    -0.16010
C1468       C  0.11231949  0.65076618  0.80930049    -0.14820
C1469       C  0.14280734  0.65147221  0.80996555     0.07330
C1470       C  0.15844018  0.62530159  0.80921350    -0.14820
H1471       H  0.15708716  0.58035076  0.79694483     0.11320
H1472       H  0.07482024  0.62566492  0.79785082     0.11320
H1473       H  0.09993034  0.67080044  0.81014984     0.11320
H1474       H  0.18199579  0.62535938  0.80984153     0.11320
C1475       C  0.32019400  0.53602843  0.60817031    -0.14820
C1476       C  0.34065744  0.52060655  0.59098080     0.07330
C1477       C  0.35230149  0.49462553  0.60293255    -0.14820
C1478       C  0.34610566  0.48593132  0.63295531    -0.14820
C1479       C  0.32861267  0.00347266  0.65155707     0.07330
C1480       C  0.31430453  0.52757506  0.63835376    -0.14820
H1481       H  0.31133218  0.55630891  0.59957387     0.11320
H1482       H  0.36840205  0.48259054  0.59002341     0.11320
H1483       H  0.35767716  0.46753906  0.64260492     0.11320
H1484       H  0.30077042  0.54151587  0.65232274     0.11320
C1485       C  0.48250761  0.63042699  0.50080011    -0.14820
C1486       C  0.48512845  0.59996227  0.50140240     0.07330
C1487       C  0.01301298  0.58747834  0.50074084    -0.14820
C1488       C  0.03780546  0.60513370  0.50132717    -0.14820
C1489       C  0.03517030  0.63560058  0.50185999     0.07330
C1490       C  0.00729728  0.64808006  0.50066745    -0.14820
H1491       H  0.46126542  0.64059533  0.50121381     0.11320
H1492       H  0.01566091  0.56405538  0.50138694     0.11320
H1493       H  0.05903480  0.59496090  0.50212035     0.11320
H1494       H  0.00461564  0.67149550  0.50122173     0.11320
C1495       C  0.47642944  0.96747283  0.55859963    -0.14820
C1496       C  0.47551819  0.49795768  0.56002060     0.07330
C1497       C  0.00156645  0.51382040  0.55980298    -0.14820
C1498       C  0.02733822  0.50003246  0.55159279    -0.14820
C1499       C  0.02718224  0.97024160  0.54465098     0.07330
C1500       C  0.00231237  0.95357791  0.55096731    -0.14820
H1501       H  0.45649383  0.95489836  0.55902117     0.11320
H1502       H  0.50135060  0.53737504  0.56102170     0.11320
H1503       H  0.04663611  0.51311150  0.54781853     0.11320
H1504       H  0.00192262  0.93041862  0.54647430     0.11320
C1505       C  0.38833504  0.76450408  0.60979107    -0.14820
C1506       C  0.39370848  0.79410918  0.60430157     0.07330
C1507       C  0.40795627  0.81051962  0.62681972    -0.14820
C1508       C  0.41765169  0.79734094  0.65382285    -0.14820
C1509       C  0.41397796  0.76730742  0.65846080     0.07330
C1510       C  0.39857959  0.75116957  0.63649779    -0.14820
H1511       H  0.37825081  0.75119384  0.59238613     0.11320
H1512       H  0.41300174  0.83323978  0.62271163     0.11320
H1513       H  0.42892911  0.81043786  0.67056347     0.11320
H1514       H  0.39470537  0.72811338  0.63979934     0.11320
C1515       C  0.37744280  0.90131141  0.46864323    -0.14820
C1516       C  0.36406992  0.88933637  0.49471747     0.07330
C1517       C  0.35031061  0.90803004  0.51549302    -0.14820
C1518       C  0.35131416  0.93831470  0.51106947    -0.14820
C1519       C  0.36695911  0.95035771  0.48634730     0.07330
C1520       C  0.37910235  0.93150768  0.46461132    -0.14820
H1521       H  0.38905992  0.88736982  0.45287863     0.11320
H1522       H  0.34084038  0.89936166  0.53632922     0.11320
H1523       H  0.34211735  0.95232309  0.52842677     0.11320
H1524       H  0.39137601  0.94014302  0.44544334     0.11320
C1525       C  0.36798664  0.68761950  0.53370717    -0.14820
C1526       C  0.37663128  0.69942306  0.50545567     0.07330
C1527       C  0.37851476  0.68101250  0.47993176    -0.14820
C1528       C  0.37299740  0.65119382  0.48280972    -0.14820
C1529       C  0.36619938  0.63903983  0.51144184     0.07330
C1530       C  0.36326072  0.65759244  0.53677701    -0.14820
H1531       H  0.36635675  0.70134776  0.55369512     0.11320
H1532       H  0.38486395  0.68963335  0.45780143     0.11320
H1533       H  0.37584660  0.63738894  0.46302119     0.11320
H1534       H  0.35825434  0.64871534  0.55916332     0.11320
C1535       C  0.38164096  0.75579753  0.38655759    -0.14820
C1536       C  0.36482984  0.77026665  0.40875433     0.07330
C1537       C  0.33487629  0.77357580  0.40382603    -0.14820
C1538       C  0.32242375  0.76449227  0.37636751    -0.14820
C1539       C  0.33950801  0.75129916  0.35365731     0.07330
C1540       C  0.36903875  0.74627010  0.35930059    -0.14820
H1541       H  0.40467448  0.75225211  0.39003106     0.11320
H1542       H  0.32128929  0.78418663  0.42067215     0.11320
H1543       H  0.29976188  0.76937584  0.37201837     0.11320
H1544       H  0.38280330  0.73707335  0.34168281     0.11320
C1545       C  0.49345063  0.73534943  0.55490263    -0.14820
C1546       C  0.49390602  0.76516456  0.54775250     0.07330
C1547       C  0.01885042  0.78159854  0.55411100    -0.14820
C1548       C  0.04461591  0.76741689  0.56162201    -0.14820
C1549       C  0.04530120  0.73690177  0.56276388     0.07330
C1550       C  0.01911854  0.72127105  0.56295007    -0.14820
H1551       H  0.47406787  0.72244923  0.55115485     0.11320
H1552       H  0.01946084  0.80478013  0.54952123     0.11320
H1553       H  0.06465770  0.77981884  0.56185992     0.11320
H1554       H  0.01914740  0.69769919  0.56408414     0.11320
C1555       C  0.01512155  0.83641819  0.45036534    -0.14820
C1556       C  0.48744208  0.84921467  0.45174563     0.07330
C1557       C  0.48511125  0.87962326  0.44857640    -0.14820
C1558       C  0.01002624  0.89710109  0.44833766    -0.14820
C1559       C  0.03761265  0.88442835  0.45169887     0.07330
C1560       C  0.04003430  0.85390713  0.45054187    -0.14820
H1561       H  0.01762932  0.81308152  0.45280447     0.11320
H1562       H  0.46401064  0.89006650  0.44936752     0.11320
H1563       H  0.00743142  0.92051376  0.44917506     0.11320
H1564       H  0.06106575  0.84352831  0.45287342     0.11320
C1565       C  0.15642127  0.99004971  0.35911452    -0.14820
C1566       C  0.18568041  0.98370409  0.35314260     0.07330
C1567       C  0.20214073  0.96922588  0.37560092    -0.14820
C1568       C  0.18930348  0.96031450  0.40310871    -0.14820
C1569       C  0.15954875  0.96497911  0.40826812     0.07330
C1570       C  0.14340280  0.98054933  0.38630484    -0.14820
H1571       H  0.14307183  0.50037749  0.34179218     0.11320
H1572       H  0.22459101  0.96349758  0.37114770     0.11320
H1573       H  0.20237729  0.94883339  0.41982814     0.11320
H1574       H  0.12057073  0.98512961  0.38999508     0.11320
C1575       C  0.16729099  0.54483035  0.15262644    -0.14820
C1576       C  0.16267632  0.51490993  0.15719998     0.07330
C1577       C  0.14728724  0.99919713  0.13489700    -0.14820
C1578       C  0.13782551  0.51285494  0.10802659    -0.14820
C1579       C  0.14397104  0.54235184  0.10274419     0.07330
C1580       C  0.15838224  0.55830805  0.12548875    -0.14820
H1581       H  0.17863617  0.55761255  0.16958378     0.11320
H1582       H  0.14275350  0.97624866  0.13809313     0.11320
H1583       H  0.12760305  0.99987324  0.09044192     0.11320
H1584       H  0.16402581  0.58091285  0.12154809     0.11320
C1585       C  0.22761202  0.86196242  0.20114737    -0.14820
C1586       C  0.23983520  0.88996790  0.20078859     0.07330
C1587       C  0.27004938  0.89279687  0.19653347    -0.14820
C1588       C  0.28802456  0.86822409  0.19674809    -0.14820
C1589       C  0.27609594  0.84045774  0.20170085     0.07330
C1590       C  0.24561909  0.83739661  0.20179409    -0.14820
H1591       H  0.20445370  0.85907397  0.20456595     0.11320
H1592       H  0.28004919  0.91415073  0.19608623     0.11320
H1593       H  0.31136820  0.87134020  0.19662146     0.11320
H1594       H  0.23576981  0.81622759  0.20533981     0.11320
C1595       C  0.15729208  0.83423607  0.31362049    -0.14820
C1596       C  0.12680927  0.83337703  0.31417810     0.07330
C1597       C  0.11109028  0.85947126  0.31258386    -0.14820
C1598       C  0.12512839  0.88484995  0.30320027    -0.14820
C1599       C  0.15502278  0.88429344  0.29667361     0.07330
C1600       C  0.17144282  0.85974417  0.30483320    -0.14820
H1601       H  0.16975046  0.81427253  0.31514446     0.11320
H1602       H  0.08752979  0.85930524  0.31321935     0.11320
H1603       H  0.11219816  0.90396899  0.29811352     0.11320
H1604       H  0.19467556  0.85908746  0.30081054     0.11320
C1605       C  0.42693867  0.49879590  0.13330901    -0.14820
C1606       C  0.44201456  0.97987548  0.15287050     0.07330
C1607       C  0.45459032  0.95448780  0.14059375    -0.14820
C1608       C  0.44905456  0.94634523  0.11036962    -0.14820
C1609       C  0.43076986  0.96342577  0.09214140     0.07330
C1610       C  0.42111699  0.99046036  0.10319944    -0.14820
H1611       H  0.41679889  0.51828874  0.14217898     0.11320
H1612       H  0.46637127  0.93952550  0.15523315     0.11320
H1613       H  0.45626495  0.92522406  0.10249058     0.11320
H1614       H  0.40659844  0.50373520  0.08952554     0.11320
C1615       C  0.32913759  0.52653325  0.26270762    -0.14820
C1616       C  0.34152308  0.51201487  0.23759703     0.07330
C1617       C  0.32306514  0.50064676  0.21508410    -0.14820
C1618       C  0.29285783  0.50194893  0.21864014    -0.14820
C1619       C  0.28051091  0.51413447  0.24501601     0.07330
C1620       C  0.29883157  0.52714212  0.26664777    -0.14820
H1621       H  0.34288930  0.53502610  0.28065482     0.11320
H1622       H  0.33203078  0.48918248  0.19564331     0.11320
H1623       H  0.27920152  0.49090624  0.20219736     0.11320
H1624       H  0.28985184  0.53565895  0.28769792     0.11320
C1625       C  0.04199664  0.00478411  0.23175658    -0.14820
C1626       C  0.03046202  0.51259457  0.26029204     0.07330
C1627       C  0.04949570  0.51604893  0.28516652    -0.14820
C1628       C  0.07937308  0.51094115  0.28176802    -0.14820
C1629       C  0.09059012  0.50141738  0.25366676     0.07330
C1630       C  0.07168623  0.99891428  0.22857286    -0.14820
H1631       H  0.02780592  0.00149676  0.21234043     0.11320
H1632       H  0.04111047  0.52181477  0.30748795     0.11320
H1633       H  0.09345875  0.51306937  0.30144251     0.11320
H1634       H  0.07981717  0.99188059  0.20654967     0.11320
C1635       C  0.38666195  0.02969362  0.35226724    -0.14820
C1636       C  0.41298875  0.54077257  0.34058585     0.07330
C1637       C  0.42892459  0.56055906  0.35804811    -0.14820
C1638       C  0.42059447  0.56620986  0.38823998    -0.14820
C1639       C  0.39617771  0.55222945  0.40122261     0.07330
C1640       C  0.37813682  0.53559584  0.38233425    -0.14820
H1641       H  0.37425978  0.01405988  0.33916883     0.11320
H1642       H  0.44949084  0.56893283  0.34967848     0.11320
H1643       H  0.43488587  0.57914311  0.40239661     0.11320
H1644       H  0.35945216  0.02432143  0.39178592     0.11320
C1645       C  0.02086974  0.89620136  0.25466047    -0.14820
C1646       C  0.49046191  0.89386394  0.25561037     0.07330
C1647       C  0.47763455  0.86606746  0.25561402    -0.14820
C1648       C  0.49496841  0.84106157  0.25629949    -0.14820
C1649       C  0.02540217  0.84344901  0.25620909     0.07330
C1650       C  0.03816439  0.87123689  0.25461308    -0.14820
H1651       H  0.03128641  0.91735749  0.25454911     0.11320
H1652       H  0.45422049  0.86366378  0.25645597     0.11320
H1653       H  0.48460581  0.81990128  0.25737595     0.11320
H1654       H  0.06158662  0.87373298  0.25464261     0.11320
C1655       C  0.40845527  0.87811957  0.31011910    -0.14820
C1656       C  0.39182275  0.90354615  0.31304108     0.07330
C1657       C  0.36142377  0.90173849  0.31209011    -0.14820
C1658       C  0.34825795  0.87628300  0.30201705    -0.14820
C1659       C  0.36553744  0.85267056  0.29292481     0.07330
C1660       C  0.39539380  0.85282025  0.29939915    -0.14820
H1661       H  0.43198045  0.87899600  0.31109821     0.11320
H1662       H  0.34825988  0.92113215  0.31464005     0.11320
H1663       H  0.32500274  0.87630307  0.29818255     0.11320
H1664       H  0.40897221  0.83436232  0.29367770     0.11320
Fe1665     Fe  0.95820387  0.47064999  0.29732502     1.65780
Fe1666     Fe  0.91420655  0.45129167  0.24122455     1.73250
Fe1667     Fe  0.93632390  0.02038629  0.24574912     1.54410
O1668       O  0.93499383  0.03730411  0.29078705    -0.83150
O1669       O  0.93479666  0.45843225  0.20070193    -0.81450
O1670       O  0.93230770  0.49807551  0.32124486    -0.85650
O1671       O  0.98895367  0.50310788  0.29057051    -0.80510
O1672       O  0.89135710  0.02267216  0.24727682    -0.82280
O1673       O  0.94578111  0.41935672  0.25053661    -0.85030
C1674       C  0.99860152  0.01213628  0.26508207     0.95740
C1675       C  0.92738507  0.02474616  0.31581733     1.03180
O1676       O  0.93650327  0.48086800  0.26084406    -1.14010
O1677       O  0.89287999  0.44422627  0.28151024    -0.76440
O1678       O  0.93146497  0.43612648  0.30999075    -0.79930
O1679       O  0.98143139  0.01893070  0.24348160    -0.80620
C1680       C  0.90543250  0.43050432  0.30272062     0.94640
O1681       O  0.98312050  0.44212991  0.27262976    -0.78580
O1682       O  0.88002982  0.47890306  0.22926580    -0.83770
C1683       C  0.93819118  0.98221621  0.18635866     0.97260
C1684       C  0.87283183  0.00439878  0.23765290     1.03180
O1685       O  0.93613139  0.00704891  0.19942345    -0.79410
C1686       C  0.97229906  0.42010587  0.25925410     1.01480
Fe1687     Fe  0.72081496  0.44694942  0.27067147     1.65780
Fe1688     Fe  0.66366803  0.44675629  0.22342111     1.73250
Fe1689     Fe  0.68471159  0.00964066  0.25625842     1.54410
O1690       O  0.69140135  0.00575730  0.30374089    -0.83150
O1691       O  0.67364871  0.47287450  0.18667169    -0.81450
O1692       O  0.70651544  0.46013602  0.31198457    -0.85650
O1693       O  0.75050065  0.48008521  0.26814753    -0.80510
O1694       O  0.64081541  0.00561923  0.26624046    -0.82280
O1695       O  0.69541565  0.41574849  0.21078025    -0.85030
C1696       C  0.75131257  0.00408831  0.25398810     0.95740
C1697       C  0.69585820  0.48383076  0.32125718     1.03180
O1698       O  0.68985987  0.46820186  0.24989203    -1.14010
O1699       O  0.65150165  0.42197015  0.26028562    -0.76440
O1700       O  0.69546176  0.41018010  0.27726518    -0.79930
O1701       O  0.72848411  0.01768503  0.24586726    -0.80620
C1702       C  0.66801783  0.40715733  0.27752788     0.94640
O1703       O  0.73664846  0.43251411  0.22987745    -0.78580
O1704       O  0.62781300  0.47305729  0.23154273    -0.83770
C1705       C  0.67147891  0.00056297  0.18613364     0.97260
C1706       C  0.62151238  0.99293655  0.25046869     1.03180
O1707       O  0.67470656  0.01631815  0.20998038    -0.79410
C1708       C  0.72303471  0.41468500  0.21333227     1.01480
Fe1709     Fe  0.93038200  0.33013986  0.52201039     1.65780
Fe1710     Fe  0.93139244  0.27274919  0.47541601     1.73250
Fe1711     Fe  0.86814915  0.29350937  0.50758998     1.54420
O1712       O  0.87157367  0.30058461  0.55508886    -0.83150
O1713       O  0.90585625  0.28251188  0.43854395    -0.81450
O1714       O  0.91717917  0.31556064  0.56328355    -0.85650
O1715       O  0.89695500  0.35946817  0.51963640    -0.80510
O1716       O  0.87219448  0.24964687  0.51813412    -0.82280
O1717       O  0.96211350  0.30471926  0.46260889    -0.85030
C1718       C  0.87357650  0.36017582  0.50457937     0.95740
C1719       C  0.89347604  0.30478752  0.57255636     1.03180
O1720       O  0.90955251  0.29888793  0.50147945    -1.14010
O1721       O  0.95576662  0.26096827  0.51247066    -0.76440
O1722       O  0.96740525  0.30524825  0.52853932    -0.79930
O1723       O  0.86027433  0.33722635  0.49635404    -0.80620
C1724       C  0.97062799  0.27780615  0.52915610     0.94640
O1725       O  0.94479114  0.34602459  0.48105344    -0.78580
O1726       O  0.90519334  0.23677566  0.48366722    -0.83770
C1727       C  0.87829825  0.27972466  0.43774496     0.97260
C1728       C  0.88509893  0.23039071  0.50245559     1.03180
O1729       O  0.86209949  0.28290977  0.46137545    -0.79410
C1730       C  0.96282165  0.33240499  0.46466591     1.01480
Fe1731     Fe  0.90978025  0.06608202  0.54554063     1.65780
Fe1732     Fe  0.92754583  0.02346587  0.48769161     1.73250
Fe1733     Fe  0.85859534  0.04509118  0.49564399     1.54420
O1734       O  0.84296564  0.04316360  0.54127971    -0.83150
O1735       O  0.91894709  0.04515638  0.44814196    -0.81450
O1736       O  0.88298041  0.03972803  0.57007687    -0.85650
O1737       O  0.87730110  0.09709098  0.54050370    -0.80510
O1738       O  0.85653661  0.50011488  0.49672624    -0.82280
O1739       O  0.95974709  0.05502683  0.49635367    -0.85030
C1740       C  0.86723657  0.10708381  0.51562147     0.95740
C1741       C  0.85614502  0.03509872  0.56570127     1.03180
O1742       O  0.89853599  0.04509127  0.50912813    -1.14010
O1743       O  0.93633277  0.00094252  0.52685108    -0.76440
O1744       O  0.94436600  0.03879528  0.55647696    -0.79930
O1745       O  0.85988155  0.09024336  0.49401218    -0.80620
C1746       C  0.94965834  0.01280057  0.54865641     0.94640
O1747       O  0.93758920  0.09166175  0.52034183    -0.78580
O1748       O  0.89953556  0.48931886  0.47630088    -0.83770
C1749       C  0.89476103  0.04821592  0.43475175     0.97260
C1750       C  0.87448259  0.48178973  0.48602573     1.03180
O1751       O  0.87039517  0.04550818  0.44875039    -0.79410
C1752       C  0.95916717  0.08136796  0.50572263     1.01480
Fe1753     Fe  0.71045467  0.21764266  0.79459852     1.65780
Fe1754     Fe  0.66709007  0.20025891  0.73724904     1.73250
Fe1755     Fe  0.68855857  0.26927995  0.74521570     1.54410
O1756       O  0.68735550  0.28439823  0.79096595    -0.83150
O1757       O  0.68799472  0.20940817  0.69737596    -0.81450
O1758       O  0.68428500  0.24401682  0.81958863    -0.85650
O1759       O  0.74113875  0.25046116  0.78936155    -0.80510
O1760       O  0.64366330  0.27113020  0.74699665    -0.82280
O1761       O  0.69897807  0.16819418  0.74522483    -0.85030
C1762       C  0.75077204  0.26093953  0.76445755     0.95740
C1763       C  0.67951961  0.27091114  0.81537427     1.03180
O1764       O  0.68891625  0.22916246  0.75850354    -1.14010
O1765       O  0.64529157  0.19086120  0.77668983    -0.76440
O1766       O  0.68359003  0.18267255  0.80572839    -0.79930
O1767       O  0.73366833  0.26824757  0.74296223    -0.80620
C1768       C  0.65750175  0.17738687  0.79830286     0.94640
O1769       O  0.73580990  0.19028217  0.76891270    -0.78580
O1770       O  0.63262360  0.22824008  0.72660013    -0.83770
C1771       C  0.69042472  0.23378317  0.68401598     0.97260
C1772       C  0.62522518  0.25322925  0.73647192     1.03180
O1773       O  0.68804386  0.25800116  0.69822534    -0.79410
C1774       C  0.72542631  0.16881810  0.75425432     1.01480
Fe1775     Fe  0.97297525  0.19911025  0.77192965     1.65780
Fe1776     Fe  0.91658388  0.19912071  0.72384721     1.73250
Fe1777     Fe  0.93717009  0.26175588  0.75718108     1.54420
O1778       O  0.94403669  0.25768841  0.80472802    -0.83150
O1779       O  0.92667815  0.22557203  0.68748459    -0.81450
O1780       O  0.95730506  0.21146925  0.81290337    -0.85650
O1781       O  0.00224190  0.23277918  0.77121149    -0.80510
O1782       O  0.89324406  0.25767320  0.76719187    -0.82280
O1783       O  0.94888671  0.16877877  0.71119676    -0.85030
C1784       C  0.00358022  0.25575419  0.75531458     0.95740
C1785       C  0.94722329  0.23542467  0.82213410     1.03180
O1786       O  0.94227222  0.22037928  0.75080298    -1.14010
O1787       O  0.90422969  0.17372446  0.76016068    -0.76440
O1788       O  0.94814990  0.16179244  0.77702577    -0.79930
O1789       O  0.98097238  0.26916912  0.74621551    -0.80620
C1790       C  0.92075757  0.15844154  0.77690508     0.94640
O1791       O  0.98979416  0.18554108  0.73120730    -0.78580
O1792       O  0.88059904  0.22516675  0.73218708    -0.83770
C1793       C  0.92370480  0.25315537  0.68714287     0.97260
C1794       C  0.87410195  0.24492963  0.75120187     1.03180
O1795       O  0.92677997  0.26881167  0.71105855    -0.79410
C1796       C  0.97648839  0.16785097  0.71417238     1.01480
Fe1797     Fe  0.65985758  0.31615810  0.04543585     1.65780
Fe1798     Fe  0.67843703  0.27360521  0.98782846     1.73250
Fe1799     Fe  0.60936038  0.29467199  0.99512801     1.54410
O1800       O  0.59315497  0.29379805  0.04054631    -0.83150
O1801       O  0.67004080  0.29526681  0.94818430    -0.81450
O1802       O  0.63277550  0.29003093  0.06988350    -0.85650
O1803       O  0.62732216  0.34701071  0.03956567    -0.80510
O1804       O  0.60760256  0.24973644  0.99705480    -0.82280
O1805       O  0.71042807  0.30533830  0.99677138    -0.85030
C1806       C  0.61753140  0.35677046  0.01443778     0.95740
C1807       C  0.60584113  0.28618702  0.06539518     1.03180
O1808       O  0.64913434  0.29499572  0.00902220    -1.14010
O1809       O  0.68700329  0.25112912  0.02703796    -0.76440
O1810       O  0.69445942  0.28893652  0.05692844    -0.79930
O1811       O  0.61061204  0.33976073  0.99279949    -0.80620
C1812       C  0.69999394  0.26298103  0.04906574     0.94640
O1813       O  0.68773761  0.34176601  0.02050634    -0.78580
O1814       O  0.65056428  0.23933032  0.97627079    -0.83770
C1815       C  0.64592372  0.29696495  0.93443174     0.97260
C1816       C  0.62563205  0.23156645  0.98619790     1.03180
O1817       O  0.62154502  0.29400179  0.94833928    -0.79410
C1818       C  0.70951832  0.33167948  0.00611521     1.01480
Fe1819     Fe  0.68038519  0.07919722  0.02061187     1.65780
Fe1820     Fe  0.68075953  0.02231287  0.97328078     1.73250
Fe1821     Fe  0.61792213  0.04315250  0.00628428     1.54410
O1822       O  0.62171537  0.05000186  0.05378574    -0.83150
O1823       O  0.65474013  0.03220920  0.93664832    -0.81450
O1824       O  0.66768574  0.06385132  0.06181088    -0.85650
O1825       O  0.64692919  0.10854350  0.01939098    -0.80510
O1826       O  0.62189329  0.49924765  0.01656151    -0.82280
O1827       O  0.71140577  0.05443316  0.96051431    -0.85030
C1828       C  0.62382287  0.10968898  0.00392013     0.95740
C1829       C  0.64384652  0.05340146  0.07112637     1.03180
O1830       O  0.65927333  0.04830475  0.99981598    -1.14010
O1831       O  0.70549114  0.01019165  0.01005253    -0.76440
O1832       O  0.71743809  0.05434461  0.02610059    -0.79930
O1833       O  0.61041156  0.08696912  0.99521662    -0.80620
C1834       C  0.72036910  0.02690187  0.02687146     0.94640
O1835       O  0.69437255  0.09560239  0.97968239    -0.78580
O1836       O  0.65457407  0.48640098  0.98170456    -0.83770
C1837       C  0.62714141  0.02946734  0.93628470     0.97260
C1838       C  0.63465414  0.48001738  0.00070714     1.03180
O1839       O  0.61133173  0.03272143  0.96017381    -0.79410
C1840       C  0.71233771  0.08209082  0.96308044     1.01480
Fe1841     Fe  0.61062690  0.16906575  0.54589072     1.65780
Fe1842     Fe  0.59219143  0.21268204  0.48865990     1.73250
Fe1843     Fe  0.66131441  0.19119018  0.49547024     1.54410
O1844       O  0.67728724  0.19263332  0.54092128    -0.83150
O1845       O  0.60060256  0.19192289  0.44866100    -0.81450
O1846       O  0.63749906  0.19517782  0.57029585    -0.85650
O1847       O  0.64319003  0.13830519  0.54017406    -0.80510
O1848       O  0.66320721  0.23611637  0.49673938    -0.82280
O1849       O  0.56029723  0.18074253  0.49729956    -0.85030
C1850       C  0.65321064  0.12882592  0.51511502     0.95740
C1851       C  0.66421212  0.20031159  0.56552159     1.03180
O1852       O  0.62147160  0.19076867  0.50949005    -1.14010
O1853       O  0.58353096  0.23436801  0.52819342    -0.76440
O1854       O  0.57606717  0.19596363  0.55764932    -0.79930
O1855       O  0.66029757  0.14607626  0.49356570    -0.80620
C1856       C  0.57070865  0.22212097  0.55028830     0.94640
O1857       O  0.58267126  0.14379432  0.52083663    -0.78580
O1858       O  0.61987903  0.24724254  0.47738904    -0.83770
C1859       C  0.62470291  0.18898778  0.43498277     0.97260
C1860       C  0.64508230  0.25460689  0.48661328     1.03180
O1861       O  0.64915792  0.19136868  0.44873688    -0.79410
C1862       C  0.56103348  0.15423536  0.50639804     1.01480
Fe1863     Fe  0.59237373  0.40623640  0.52261276     1.65780
Fe1864     Fe  0.59169690  0.46251655  0.47400731     1.73250
Fe1865     Fe  0.65451771  0.44246899  0.50733233     1.54410
O1866       O  0.65061245  0.43536735  0.55496020    -0.83150
O1867       O  0.61809295  0.45279977  0.43773034    -0.81450
O1868       O  0.60427330  0.42266536  0.56328616    -0.85650
O1869       O  0.62660629  0.37763301  0.52299862    -0.80510
O1870       O  0.65019303  0.48632642  0.51720172    -0.82280
O1871       O  0.56204293  0.42955124  0.46144910    -0.85030
C1872       C  0.64873904  0.37617632  0.50597249     0.95740
C1873       C  0.62833045  0.43259020  0.57237387     1.03180
O1874       O  0.61322872  0.43712170  0.50114574    -1.14010
O1875       O  0.56620827  0.47449416  0.51018383    -0.76440
O1876       O  0.55457112  0.43031287  0.52684530    -0.79930
O1877       O  0.66183598  0.39877884  0.49622996    -0.80620
C1878       C  0.55102268  0.45769423  0.52680550     0.94640
O1879       O  0.57940917  0.38890652  0.48199966    -0.78580
O1880       O  0.61729950  0.49887550  0.48235722    -0.83770
C1881       C  0.64562625  0.45577998  0.43724978     0.97260
C1882       C  0.63709798  0.00545577  0.50133300     1.03180
O1883       O  0.66139952  0.45299213  0.46116048    -0.79410
C1884       C  0.56168220  0.40188080  0.46457466     1.01480
Fe1885     Fe  0.81175226  0.01740757  0.79545283     1.65780
Fe1886     Fe  0.85581072  0.03479117  0.73826822     1.73250
Fe1887     Fe  0.83352327  0.46594110  0.74623469     1.54420
O1888       O  0.83414605  0.45031512  0.79198065    -0.83150
O1889       O  0.83489473  0.02628067  0.69844027    -0.81450
O1890       O  0.83701678  0.49031199  0.82084285    -0.85650
O1891       O  0.78054905  0.48520731  0.78992215    -0.80510
O1892       O  0.87841538  0.46361466  0.74817343    -0.82280
O1893       O  0.82442113  0.06730125  0.74618592    -0.85030
C1894       C  0.77117272  0.47487501  0.76498907     0.95740
C1895       C  0.84126180  0.46335516  0.81672638     1.03180
O1896       O  0.83352177  0.00592522  0.75953166    -1.14010
O1897       O  0.87751825  0.04350962  0.77775110    -0.76440
O1898       O  0.83912068  0.05182365  0.80671123    -0.79930
O1899       O  0.78847396  0.46745258  0.74372813    -0.80620
C1900       C  0.86526623  0.05702776  0.79922735     0.94640
O1901       O  0.78711511  0.04536992  0.76954359    -0.78580
O1902       O  0.88989776  0.00648056  0.72753239    -0.83770
C1903       C  0.83200360  0.50207427  0.68512765     0.97260
C1904       C  0.89705183  0.48139862  0.73753706     1.03180
O1905       O  0.83430626  0.47768893  0.69927234    -0.79410
C1906       C  0.79786701  0.06684744  0.75495090     1.01480
Fe1907     Fe  0.54893867  0.03616258  0.77224606     1.65780
Fe1908     Fe  0.60514344  0.03676804  0.72367405     1.73250
Fe1909     Fe  0.58502952  0.47379191  0.75723418     1.54420
O1910       O  0.57840431  0.47734768  0.80485394    -0.83150
O1911       O  0.59474412  0.51072477  0.68744451    -0.81450
O1912       O  0.56470147  0.02336778  0.81308761    -0.85650
O1913       O  0.51974909  0.50240613  0.77150537    -0.80510
O1914       O  0.62888324  0.47812033  0.76693844    -0.82280
O1915       O  0.57278362  0.06723109  0.71137437    -0.85030
C1916       C  0.51856696  0.47936943  0.75591280     0.95740
C1917       C  0.57513312  0.49944615  0.82225091     1.03180
O1918       O  0.57962341  0.01519461  0.75086094    -1.14010
O1919       O  0.61765973  0.06171176  0.75990159    -0.76440
O1920       O  0.57383779  0.07341051  0.77734533    -0.79930
O1921       O  0.54124730  0.46614634  0.74673723    -0.80620
C1922       C  0.60124607  0.07671954  0.77695215     0.94640
O1923       O  0.53196422  0.05025738  0.73171599    -0.78580
O1924       O  0.64129386  0.01070993  0.73157548    -0.83770
C1925       C  0.59802008  0.48318847  0.68701134     0.97260
C1926       C  0.64794573  0.49100020  0.75077452     1.03180
O1927       O  0.59529832  0.46726528  0.71097241    -0.79410
C1928       C  0.54519161  0.06808345  0.71452984     1.01480
Fe1929     Fe  0.56022289  0.26660553  0.29711704     1.65780
Fe1930     Fe  0.60207562  0.28802425  0.23981203     1.73250
Fe1931     Fe  0.58426903  0.21796328  0.24541565     1.54410
O1932       O  0.58586798  0.20052096  0.29034473    -0.83150
O1933       O  0.58020356  0.28002119  0.20036422    -0.81450
O1934       O  0.58681695  0.23945204  0.32086182    -0.85650
O1935       O  0.53032665  0.23349643  0.29000612    -0.80510
O1936       O  0.62949046  0.21809811  0.24709266    -0.82280
O1937       O  0.57027371  0.31890801  0.25032616    -0.85030
C1938       C  0.52143234  0.22394854  0.26451721     0.95740
C1939       C  0.59253045  0.21297795  0.31553403     1.03180
O1940       O  0.58193488  0.25740493  0.26042709    -1.14010
O1941       O  0.62456982  0.29594392  0.27900519    -0.76440
O1942       O  0.58672876  0.30133692  0.30968244    -0.79930
O1943       O  0.53910730  0.21749147  0.24318388    -0.80620
C1944       C  0.61251803  0.30771838  0.30175562     0.94640
O1945       O  0.53403673  0.29501877  0.27322204    -0.78580
O1946       O  0.63642381  0.26177817  0.22641671    -0.83770
C1947       C  0.57990286  0.25622300  0.18587639     0.97260
C1948       C  0.64628021  0.23789853  0.23694127     1.03180
O1949       O  0.58433645  0.23165626  0.19908142    -0.79410
C1950       C  0.54401640  0.31746140  0.25965515     1.01480
Fe1951     Fe  0.80258314  0.28836813  0.27344788     1.65780
Fe1952     Fe  0.85600217  0.28792541  0.22254873     1.73250
Fe1953     Fe  0.83494552  0.22533999  0.25675967     1.54420
O1954       O  0.82885492  0.22993118  0.30476683    -0.83150
O1955       O  0.84496797  0.26135855  0.18697429    -0.81450
O1956       O  0.82262534  0.27773287  0.31259267    -0.85650
O1957       O  0.77596411  0.25313172  0.27921317    -0.80510
O1958       O  0.87920385  0.22816374  0.26542704    -0.82280
O1959       O  0.82215029  0.31716470  0.21046744    -0.85030
C1960       C  0.77002680  0.23473442  0.25896383     0.95740
C1961       C  0.82945324  0.25257748  0.32192101     1.03180
O1962       O  0.83153108  0.26686105  0.25067561    -1.14010
O1963       O  0.86941765  0.31382716  0.25797675    -0.76440
O1964       O  0.82559896  0.32676885  0.27335366    -0.79930
O1965       O  0.79032998  0.22037091  0.24627099    -0.80620
C1966       C  0.85294064  0.32952523  0.27421789     0.94640
O1967       O  0.78264224  0.29955817  0.23341846    -0.78580
O1968       O  0.89213183  0.26180560  0.23096414    -0.83770
C1969       C  0.84784601  0.23381226  0.18655307     0.97260
C1970       C  0.89844307  0.24141986  0.24965254     1.03180
O1971       O  0.84474702  0.21799444  0.21052163    -0.79410
C1972       C  0.79455996  0.31704886  0.21471981     1.01480
Fe1973     Fe  0.84238557  0.15594949  0.02280834     1.65780
Fe1974     Fe  0.84142123  0.21222963  0.97393105     1.73250
Fe1975     Fe  0.90452595  0.19212945  0.00700919     1.54410
O1976       O  0.90081448  0.18531125  0.05466085    -0.83150
O1977       O  0.86801629  0.20321488  0.93750872    -0.81450
O1978       O  0.85451599  0.17267990  0.06330916    -0.85650
O1979       O  0.87667206  0.12732860  0.02309641    -0.80510
O1980       O  0.90021547  0.23589046  0.01664203    -0.82280
O1981       O  0.81220646  0.17895226  0.96110009    -0.85030
C1982       C  0.89928044  0.12585470  0.00674658     0.95740
C1983       C  0.87857553  0.18278156  0.07215282     1.03180
O1984       O  0.86314631  0.18676463  0.00096465    -1.14010
O1985       O  0.81571166  0.22389413  0.01002771    -0.76440
O1986       O  0.80447855  0.17985909  0.02730445    -0.79930
O1987       O  0.91206536  0.14840392  0.99642893    -0.80620
C1988       C  0.80078540  0.20721092  0.02699680     0.94640
O1989       O  0.82902026  0.13836136  0.98242881    -0.78580
O1990       O  0.86632914  0.24892085  0.98292302    -0.83770
C1991       C  0.89558565  0.20590782  0.93703816     0.97260
C1992       C  0.88622179  0.25512144  0.00187277     1.03180
O1993       O  0.91133842  0.20255493  0.96087112    -0.79410
C1994       C  0.81160142  0.15131266  0.96460922     1.01480
Fe1995     Fe  0.86009013  0.41993900  0.04855012     1.65780
Fe1996     Fe  0.84169673  0.46421403  0.99214128     1.73250
Fe1997     Fe  0.91041035  0.44029541  0.99710243     1.54420
O1998       O  0.92691980  0.44158594  0.04242337    -0.83150
O1999       O  0.84891296  0.44444370  0.95138191    -0.81450
O2000       O  0.88751670  0.44592485  0.07230459    -0.85650
O2001       O  0.89249390  0.38950786  0.04276947    -0.80510
O2002       O  0.91373175  0.48521881  0.99805182    -0.82280
O2003       O  0.80963370  0.43225659  0.00050767    -0.85030
C2004       C  0.90061834  0.37862974  0.01766419     0.95740
C2005       C  0.91440869  0.44979447  0.06719950     1.03180
O2006       O  0.87081338  0.44128503  0.01190994    -1.14010
O2007       O  0.83419254  0.48523588  0.03240894    -0.76440
O2008       O  0.82551950  0.44649001  0.06065238    -0.79930
O2009       O  0.90817930  0.39498382  0.99551929    -0.80620
C2010       C  0.82038538  0.47270876  0.05360947     0.94640
O2011       O  0.83195463  0.39493248  0.02361508    -0.78580
O2012       O  0.86990070  0.49838003  0.98129390    -0.83770
C2013       C  0.87254877  0.43994759  0.93728796     0.97260
C2014       C  0.89581105  0.00451477  0.98921724     1.03180
O2015       O  0.89735478  0.44060950  0.95059548    -0.79410
C2016       C  0.81043156  0.40556611  0.00912048     1.01480
C2017       C  0.89781618  0.08488639  0.97067040    -0.14820
C2018       C  0.90853209  0.09634803  0.99813383     0.07330
C2019       C  0.91911053  0.07717305  0.02058539    -0.14820
C2020       C  0.91760148  0.04697912  0.01625868    -0.14820
C2021       C  0.90445576  0.03554171  0.98991628     0.07330
C2022       C  0.89542788  0.05474283  0.96674763    -0.14820
H2023       H  0.88859057  0.09924007  0.95352244     0.11320
H2024       H  0.92645148  0.08549742  0.04237782     0.11320
H2025       H  0.92424632  0.03262376  0.03468493     0.11320
H2026       H  0.88499425  0.04645744  0.94638622     0.11320
C2027       C  0.88283536  0.33011739  0.03534630    -0.14820
C2028       C  0.89979764  0.34650602  0.01460954     0.07330
C2029       C  0.91348041  0.33208223  0.99023862    -0.14820
C2030       C  0.90988431  0.30195595  0.98656130    -0.14820
C2031       C  0.89257465  0.28598614  0.00715618     0.07330
C2032       C  0.87923066  0.30020132  0.03160215    -0.14820
H2033       H  0.87148915  0.34057383  0.05402468     0.11320
H2034       H  0.92644940  0.34412319  0.97380315     0.11320
H2035       H  0.92007122  0.29120488  0.96733510     0.11320
H2036       H  0.86539102  0.28825108  0.04734216     0.11320
C2037       C  0.86792102  0.23751062  0.13337067    -0.14820
C2038       C  0.85747566  0.22007873  0.15761218     0.07330
C2039       C  0.85894589  0.18964291  0.15479221    -0.14820
C2040       C  0.86896637  0.17702027  0.12767285    -0.14820
C2041       C  0.87854421  0.19453737  0.10325378     0.07330
C2042       C  0.87849997  0.22485064  0.10657800    -0.14820
H2043       H  0.86765644  0.26102283  0.13491896     0.11320
H2044       H  0.85157352  0.17558498  0.17318292     0.11320
H2045       H  0.86786499  0.15361063  0.12512449     0.11320
H2046       H  0.88463700  0.23881114  0.08757434     0.11320
C2047       C  0.69310608  0.20804300  0.24059239    -0.14820
C2048       C  0.67838480  0.23497872  0.23903999     0.07330
C2049       C  0.69453865  0.26065600  0.24209156    -0.14820
C2050       C  0.72412722  0.25972957  0.24771489    -0.14820
C2051       C  0.73912232  0.23318724  0.24955853     0.07330
C2052       C  0.72353476  0.20716513  0.24530838    -0.14820
H2053       H  0.68111933  0.18787389  0.23856014     0.11320
H2054       H  0.68405021  0.28177741  0.24166250     0.11320
H2055       H  0.73516531  0.28014179  0.25156439     0.11320
H2056       H  0.73450683  0.18637926  0.24705249     0.11320
C2057       C  0.97047295  0.21799128  0.28401275    -0.14820
C2058       C  0.98967773  0.22261105  0.25937549     0.07330
C2059       C  0.97828019  0.23114368  0.23097273    -0.14820
C2060       C  0.94852281  0.23665845  0.22776021    -0.14820
C2061       C  0.92943423  0.23307647  0.25268254     0.07330
C2062       C  0.94055316  0.22274530  0.28056915    -0.14820
H2063       H  0.97875944  0.21169066  0.30623881     0.11320
H2064       H  0.99261413  0.23537252  0.21176792     0.11320
H2065       H  0.94049550  0.24433973  0.20589727     0.11320
H2066       H  0.92634584  0.21977927  0.30011701     0.11320
C2067       C  0.94003577  0.45865326  0.76348581    -0.14820
C2068       C  0.92836146  0.47362609  0.73817797     0.07330
C2069       C  0.94746732  0.48487992  0.71598622    -0.14820
C2070       C  0.97759232  0.48293149  0.72001823    -0.14820
C2071       C  0.98922504  0.47021674  0.74656296     0.07330
C2072       C  0.97024269  0.45742581  0.76791553    -0.14820
H2073       H  0.92581458  0.45017298  0.78118688     0.11320
H2074       H  0.93909687  0.49664704  0.69637554     0.11320
H2075       H  0.49176997  0.49383008  0.70377908     0.11320
H2076       H  0.97866381  0.44848727  0.78907641     0.11320
C2077       C  0.72046756  0.46991050  0.78549647    -0.14820
C2078       C  0.73935458  0.47346909  0.76040340     0.07330
C2079       C  0.72759017  0.48047349  0.73171821    -0.14820
C2080       C  0.69776122  0.48555745  0.72857669    -0.14820
C2081       C  0.67898904  0.48303217  0.75388678     0.07330
C2082       C  0.69047371  0.47421039  0.78216192    -0.14820
H2083       H  0.72904341  0.46473293  0.80791428     0.11320
H2084       H  0.74167343  0.48379947  0.71212239     0.11320
H2085       H  0.68941621  0.49206562  0.70643157     0.11320
H2086       H  0.67648598  0.47208963  0.80200053     0.11320
C2087       C  0.83642547  0.42998643  0.86117851    -0.14820
C2088       C  0.85412150  0.44751196  0.84266919     0.07330
C2089       C  0.88127027  0.45669763  0.85383141    -0.14820
C2090       C  0.88936253  0.45087358  0.88411369    -0.14820
C2091       C  0.87006956  0.43630408  0.90377763     0.07330
C2092       C  0.84431190  0.42447599  0.89154884    -0.14820
H2093       H  0.81518669  0.42321746  0.85325093     0.11320
H2094       H  0.89500160  0.47070042  0.83996503     0.11320
H2095       H  0.90909303  0.46053056  0.89295619     0.11320
H2096       H  0.82899093  0.41320084  0.90627445     0.11320
C2097       C  0.62082837  0.48650669  0.63506143    -0.14820
C2098       C  0.60771257  0.46947736  0.65814415     0.07330
C2099       C  0.60638795  0.43916294  0.65435093    -0.14820
C2100       C  0.61620708  0.42642237  0.62725005    -0.14820
C2101       C  0.62830456  0.44361028  0.60380581     0.07330
C2102       C  0.63120445  0.47365388  0.60825489    -0.14820
H2103       H  0.62281772  0.50985983  0.63755534     0.11320
H2104       H  0.59688581  0.42540031  0.67189134     0.11320
H2105       H  0.61294143  0.40331392  0.62386138     0.11320
H2106       H  0.63946476  0.48746993  0.59004926     0.11320
C2107       C  0.59861442  0.17169319  0.38858906    -0.14820
C2108       C  0.62311766  0.18541182  0.40143708     0.07330
C2109       C  0.64132634  0.20198408  0.38239942    -0.14820
C2110       C  0.63297774  0.20798075  0.35225695    -0.14820
C2111       C  0.60669212  0.19700680  0.34061357     0.07330
C2112       C  0.59049143  0.17739498  0.35831846    -0.14820
H2113       H  0.58417367  0.15882724  0.40285327     0.11320
H2114       H  0.66007034  0.21307601  0.39174226     0.11320
H2115       H  0.64553845  0.22355064  0.33901882     0.11320
H2116       H  0.56992252  0.16914971  0.35000418     0.11320
C2117       C  0.64255425  0.05532629  0.47905597    -0.14820
C2118       C  0.64498276  0.03653931  0.50440952     0.07330
C2119       C  0.65368969  0.04803422  0.53262514    -0.14820
C2120       C  0.65799855  0.07806745  0.53584800    -0.14820
C2121       C  0.65456579  0.09696497  0.51069407     0.07330
C2122       C  0.64764776  0.08517799  0.48207904    -0.14820
H2123       H  0.63613923  0.04696664  0.45695381     0.11320
H2124       H  0.65573413  0.03402453  0.55248980     0.11320
H2125       H  0.66310039  0.08665969  0.55822020     0.11320
H2126       H  0.64441353  0.09925968  0.46244006     0.11320
C2127       C  0.63966593  0.30539541  0.46623354    -0.14820
C2128       C  0.65266714  0.28601080  0.48702444     0.07330
C2129       C  0.66959211  0.29741634  0.51094867    -0.14820
C2130       C  0.67122206  0.32759361  0.51556272    -0.14820
C2131       C  0.65681132  0.34681214  0.49571313     0.07330
C2132       C  0.64193949  0.33548539  0.47041410    -0.14820
H2133       H  0.62639814  0.29726762  0.44770767     0.11320
H2134       H  0.67948552  0.28298975  0.52759569     0.11320
H2135       H  0.68188065  0.33578979  0.53583356     0.11320
H2136       H  0.62982345  0.34986999  0.45542465     0.11320
C2137       C  0.58289408  0.02269249  0.90361018    -0.14820
C2138       C  0.61304634  0.01984172  0.90762599     0.07330
C2139       C  0.62934363  0.00529913  0.88508442    -0.14820
C2140       C  0.61598344  0.99506873  0.85849697    -0.14820
C2141       C  0.58618442  0.99955358  0.85373663     0.07330
C2142       C  0.56967879  0.01299211  0.87676057    -0.14820
H2143       H  0.56965804  0.03330595  0.92077066     0.11320
H2144       H  0.65250618  0.00208695  0.88783609     0.11320
H2145       H  0.62934152  0.98566764  0.84064370     0.11320
H2146       H  0.54683080  0.51733025  0.87320120     0.11320
C2147       C  0.76007854  0.14667029  0.94775893    -0.14820
C2148       C  0.78757839  0.13389311  0.95151889     0.07330
C2149       C  0.78987319  0.10335940  0.95043135    -0.14820
C2150       C  0.76488491  0.08597331  0.94976691    -0.14820
C2151       C  0.73722345  0.09886855  0.95064512     0.07330
C2152       C  0.73507890  0.12929560  0.94757145    -0.14820
H2153       H  0.75756850  0.17009241  0.94857187     0.11320
H2154       H  0.81082151  0.09289086  0.95311107     0.11320
H2155       H  0.76725818  0.06262225  0.95221192     0.11320
H2156       H  0.71401032  0.13981927  0.94805506     0.11320
C2157       C  0.76733248  0.03107578  0.05436755    -0.14820
C2158       C  0.74317564  0.01422729  0.04608280     0.07330
C2159       C  0.74288735  0.48434792  0.05287889    -0.14820
C2160       C  0.76823017  0.47073393  0.06272637    -0.14820
C2161       C  0.79404732  0.48687742  0.06458759     0.07330
C2162       C  0.79282102  0.01735732  0.06362040    -0.14820
H2163       H  0.76773426  0.05433223  0.05021255     0.11320
H2164       H  0.72403748  0.47111095  0.04773061     0.11320
H2165       H  0.76864944  0.44715957  0.06370638     0.11320
H2166       H  0.81253779  0.03014421  0.06543284     0.11320
C2167       C  0.61313018  0.40731191  0.03531208    -0.14820
C2168       C  0.61624702  0.38867303  0.01007321     0.07330
C2169       C  0.62295503  0.40073175  0.98137944    -0.14820
C2170       C  0.62825753  0.43056626  0.97835808    -0.14820
C2171       C  0.62626462  0.44906024  0.00380396     0.07330
C2172       C  0.61767089  0.43734073  0.03210472    -0.14820
H2173       H  0.60816140  0.39850636  0.05773890     0.11320
H2174       H  0.62591240  0.38685869  0.96166150     0.11320
H2175       H  0.63456361  0.43912946  0.95618994     0.11320
H2176       H  0.61595748  0.45114022  0.05203080     0.11320
C2177       C  0.63075782  0.18132808  0.96479083    -0.14820
C2178       C  0.61827121  0.20009752  0.98638960     0.07330
C2179       C  0.60212434  0.18797453  0.01071120    -0.14820
C2180       C  0.60084298  0.15766989  0.01486340    -0.14820
C2181       C  0.61483470  0.13904429  0.99419855     0.07330
C2182       C  0.62884169  0.15112168  0.96854839    -0.14820
H2183       H  0.64340466  0.19001665  0.94591970     0.11320
H2184       H  0.59263370  0.20191354  0.02795475     0.11320
H2185       H  0.59089830  0.14890452  0.03540872     0.11320
H2186       H  0.64066122  0.13721715  0.95291240     0.11320
C2187       C  0.56507280  0.28354898  0.13890694    -0.14820
C2188       C  0.57729287  0.25835616  0.15221235     0.07330
C2189       C  0.59275089  0.23903873  0.13352393    -0.14820
C2190       C  0.59910197  0.24669286  0.10324166    -0.14820
C2191       C  0.58958953  0.27341510  0.09108762     0.07330
C2192       C  0.57114142  0.29099796  0.10849496    -0.14820
H2193       H  0.55298149  0.29881893  0.15279267     0.11320
H2194       H  0.60260132  0.21965205  0.14313619     0.11320
H2195       H  0.61373517  0.23304218  0.09019036     0.11320
H2196       H  0.56404595  0.31190861  0.09973343     0.11320
C2197       C  0.72649225  0.21758766  0.05947034    -0.14820
C2198       C  0.72575313  0.24810113  0.06069213     0.07330
C2199       C  0.75190269  0.26378325  0.06017933    -0.14820
C2200       C  0.77753072  0.24977439  0.05183762    -0.14820
C2201       C  0.77714592  0.21994262  0.04502921     0.07330
C2202       C  0.75222809  0.20347502  0.05166372    -0.14820
H2203       H  0.70647956  0.20514367  0.06010144     0.11320
H2204       H  0.75183489  0.28734789  0.06121814     0.11320
H2205       H  0.79688360  0.26271449  0.04783219     0.11320
H2206       H  0.75166180  0.18029990  0.04727979     0.11320
C2207       C  0.76329227  0.33844844  0.00151930    -0.14820
C2208       C  0.73527363  0.35059408  0.00213492     0.07330
C2209       C  0.73228580  0.38104197  0.00205921    -0.14820
C2210       C  0.75684365  0.39899090  0.00257711    -0.14820
C2211       C  0.78482273  0.38680343  0.00387776     0.07330
C2212       C  0.78784172  0.35638483  0.00273133    -0.14820
H2213       H  0.76621870  0.31505433  0.00177704     0.11320
H2214       H  0.71092342  0.39095638  0.00245658     0.11320
H2215       H  0.75388523  0.42235862  0.00356946     0.11320
H2216       H  0.80918215  0.34644694  0.00357867     0.11320
C2217       C  0.90674872  0.24035427  0.85891740    -0.14820
C2218       C  0.93639715  0.23527684  0.85375901     0.07330
C2219       C  0.95286166  0.22145751  0.87663932    -0.14820
C2220       C  0.93972540  0.21198672  0.90378261    -0.14820
C2221       C  0.90967888  0.21543366  0.90819976     0.07330
C2222       C  0.89345503  0.23032747  0.88577554    -0.14820
H2223       H  0.89341879  0.25007361  0.84120175     0.11320
H2224       H  0.97561500  0.21661303  0.87275870     0.11320
H2225       H  0.95288755  0.20106922  0.92083481     0.11320
H2226       H  0.87037388  0.23397517  0.88883448     0.11320
C2227       C  0.52388885  0.14536048  0.69938955    -0.14820
C2228       C  0.99342379  0.14324006  0.70160061     0.07330
C2229       C  0.98045003  0.11564406  0.69961619    -0.14820
C2230       C  0.99769022  0.09055381  0.69998436    -0.14820
C2231       C  0.52816636  0.09268518  0.70187026     0.07330
C2232       C  0.54112855  0.12026877  0.69929348    -0.14820
H2233       H  0.53448527  0.16638089  0.70073479     0.11320
H2234       H  0.95707312  0.11328012  0.70137950     0.11320
H2235       H  0.98709715  0.06954395  0.70176905     0.11320
H2236       H  0.56451351  0.12264260  0.70077521     0.11320
C2237       C  0.92439932  0.10983295  0.80163397    -0.14820
C2238       C  0.90788058  0.13468059  0.79484571     0.07330
C2239       C  0.87800128  0.13484925  0.80143563    -0.14820
C2240       C  0.86407912  0.10909139  0.80976827    -0.14820
C2241       C  0.87990741  0.08302349  0.81047716     0.07330
C2242       C  0.91038112  0.08396304  0.80939269    -0.14820
H2243       H  0.94761116  0.10942260  0.79743060     0.11320
H2244       H  0.86500358  0.15412557  0.79729694     0.11320
H2245       H  0.84053091  0.10886618  0.81071024     0.11320
H2246       H  0.92293181  0.06402311  0.81018892     0.11320
C2247       C  0.67432968  0.24954796  0.63233136    -0.14820
C2248       C  0.69309522  0.23270618  0.65036271     0.07330
C2249       C  0.70785805  0.20915949  0.63679035    -0.14820
C2250       C  0.70129416  0.20048096  0.60693025    -0.14820
C2251       C  0.67968591  0.21509913  0.59045630     0.07330
C2252       C  0.66744919  0.24060327  0.60267579    -0.14820
H2253       H  0.66235975  0.26746309  0.64229692     0.11320
H2254       H  0.72232703  0.19572545  0.65034075     0.11320
H2255       H  0.71068198  0.18059005  0.59812363     0.11320
H2256       H  0.65051386  0.25204860  0.59032100     0.11320
C2257       C  0.58216994  0.27642408  0.76187196    -0.14820
C2258       C  0.59385075  0.26080447  0.73709787     0.07330
C2259       C  0.57473650  0.24899253  0.71544595    -0.14820
C2260       C  0.54461378  0.25109377  0.71951834    -0.14820
C2261       C  0.53297355  0.26456363  0.74556495     0.07330
C2262       C  0.55196048  0.27784053  0.76635197    -0.14820
H2263       H  0.59638325  0.28536316  0.77916863     0.11320
H2264       H  0.58309183  0.23673818  0.69624534     0.11320
H2265       H  0.53042938  0.23980977  0.70376368     0.11320
H2266       H  0.54353602  0.28735432  0.78717713     0.11320
C2267       C  0.79478643  0.25618891  0.73154582    -0.14820
C2268       C  0.78265227  0.26258598  0.76019206     0.07330
C2269       C  0.80124057  0.26567899  0.78550167    -0.14820
C2270       C  0.83128609  0.26142412  0.78241319    -0.14820
C2271       C  0.84310032  0.25312074  0.75416014     0.07330
C2272       C  0.82464523  0.25115607  0.72864271    -0.14820
H2273       H  0.78096336  0.25324372  0.71177737     0.11320
H2274       H  0.79238477  0.27039962  0.80789964     0.11320
H2275       H  0.84503267  0.26310699  0.80240013     0.11320
H2276       H  0.83326083  0.24506330  0.70650647     0.11320
C2277       C  0.67981041  0.30752521  0.85717373    -0.14820
C2278       C  0.66502663  0.28610610  0.84071851     0.07330
C2279       C  0.63950526  0.27388507  0.85309877    -0.14820
C2280       C  0.63058936  0.28069454  0.88281152    -0.14820
C2281       C  0.64748520  0.29935023  0.90076187     0.07330
C2282       C  0.67117724  0.31399228  0.88711099    -0.14820
H2283       H  0.69972276  0.31688843  0.84822703     0.11320
H2284       H  0.62793987  0.25709339  0.84075600     0.11320
H2285       H  0.61255032  0.26882186  0.89283473     0.11320
H2286       H  0.68464460  0.32838552  0.90058663     0.11320
C2287       C  0.74907156  0.09024586  0.74884258    -0.14820
C2288       C  0.77949229  0.09282970  0.74994907     0.07330
C2289       C  0.79205484  0.12071443  0.74919689    -0.14820
C2290       C  0.77447179  0.14555620  0.74936716    -0.14820
C2291       C  0.74402212  0.14295789  0.74957798     0.07330
C2292       C  0.73150555  0.11508095  0.74830644    -0.14820
H2293       H  0.73884929  0.06899845  0.74927393     0.11320
H2294       H  0.81544243  0.12333280  0.75018519     0.11320
H2295       H  0.78467245  0.16679438  0.75022625     0.11320
H2296       H  0.70810223  0.11242827  0.74860972     0.11320
C2297       C  0.64424038  0.09969808  0.80118810    -0.14820
C2298       C  0.61432317  0.10014695  0.79490287     0.07330
C2299       C  0.59803085  0.12505799  0.80181323    -0.16010
C2300       C  0.61230293  0.15077229  0.80929614    -0.14820
C2301       C  0.64279081  0.15147579  0.80996486     0.07330
C2302       C  0.65842140  0.12530365  0.80921945    -0.14820
H2303       H  0.65706597  0.08035130  0.79695721     0.11320
H2304       H  0.57480299  0.12567295  0.79784430     0.11320
H2305       H  0.59991540  0.17080775  0.81014073     0.11320
H2306       H  0.68197692  0.12535942  0.80985069     0.11320
C2307       C  0.82018092  0.03601850  0.60816625    -0.14820
C2308       C  0.84065213  0.02060199  0.59098151     0.07330
C2309       C  0.85229836  0.99462264  0.60293499    -0.14820
C2310       C  0.84609628  0.98592514  0.63295536    -0.14820
C2311       C  0.82863051  0.50348370  0.65156066     0.07330
C2312       C  0.81428526  0.02756197  0.63834757    -0.14820
H2313       H  0.81131683  0.05629746  0.59956846     0.11320
H2314       H  0.86840442  0.98259143  0.59002951     0.11320
H2315       H  0.85766941  0.96753492  0.64260711     0.11320
H2316       H  0.80074518  0.04149945  0.65231384     0.11320
C2317       C  0.98250572  0.13042672  0.50080646    -0.14820
C2318       C  0.98512650  0.09996198  0.50140893     0.07330
C2319       C  0.51301102  0.08747803  0.50074640    -0.14820
C2320       C  0.53780358  0.10513336  0.50133133    -0.14820
C2321       C  0.53516854  0.13560026  0.50186359     0.07330
C2322       C  0.50729546  0.14807975  0.50067232    -0.14820
H2323       H  0.96126355  0.14059509  0.50122086     0.11320
H2324       H  0.51565895  0.06405508  0.50139258     0.11320
H2325       H  0.55903293  0.09496054  0.50212365     0.11320
H2326       H  0.50461392  0.17149521  0.50122632     0.11320
C2327       C  0.97643173  0.46747335  0.55859473    -0.14820
C2328       C  0.97551551  0.99795714  0.56002570     0.07330
C2329       C  0.50156358  0.01382018  0.55980787    -0.14820
C2330       C  0.52733553  0.00003255  0.55159762    -0.14820
C2331       C  0.52718450  0.47024153  0.54464605     0.07330
C2332       C  0.50231448  0.45357811  0.55096245    -0.14820
H2333       H  0.95649596  0.45489913  0.55901624     0.11320
H2334       H  0.00134743  0.03737482  0.56102661     0.11320
H2335       H  0.54663326  0.01311184  0.54782338     0.11320
H2336       H  0.50192444  0.43041883  0.54646938     0.11320
C2337       C  0.88832928  0.26451089  0.60979217    -0.14820
C2338       C  0.89370440  0.29411534  0.60430100     0.07330
C2339       C  0.90795233  0.31052648  0.62681856    -0.14820
C2340       C  0.91764678  0.29734878  0.65382264    -0.14820
C2341       C  0.91397203  0.26731561  0.65846176     0.07330
C2342       C  0.89857301  0.25117735  0.63649961    -0.14820
H2343       H  0.87824471  0.25120016  0.59238785     0.11320
H2344       H  0.91299887  0.33324621  0.62270921     0.11320
H2345       H  0.92892469  0.31044588  0.67056273     0.11320
H2346       H  0.89469796  0.22812142  0.63980224     0.11320
C2347       C  0.87744243  0.40131177  0.46863949    -0.14820
C2348       C  0.86406910  0.38933693  0.49471358     0.07330
C2349       C  0.85031001  0.40803082  0.51548905    -0.14820
C2350       C  0.85131430  0.43831546  0.51106568    -0.14820
C2351       C  0.86695978  0.45035822  0.48634375     0.07330
C2352       C  0.87910272  0.43150802  0.46460775    -0.14820
H2353       H  0.88905945  0.38736999  0.45287499     0.11320
H2354       H  0.84083949  0.39936259  0.53632518     0.11320
H2355       H  0.84211765  0.45232397  0.52842296     0.11320
H2356       H  0.89137672  0.44014317  0.44543992     0.11320
C2357       C  0.86798598  0.18762004  0.53370919    -0.14820
C2358       C  0.87663072  0.19942320  0.50545751     0.07330
C2359       C  0.87851450  0.18101204  0.47993407    -0.14820
C2360       C  0.87299707  0.15119337  0.48281259    -0.14820
C2361       C  0.86619869  0.13903978  0.51144483     0.07330
C2362       C  0.86326003  0.15759294  0.53677961    -0.14820
H2363       H  0.86635591  0.20134868  0.55369684     0.11320
H2364       H  0.88486384  0.18963246  0.45780360     0.11320
H2365       H  0.87584631  0.13738816  0.46302430     0.11320
H2366       H  0.85825341  0.14871627  0.55916604     0.11320
C2367       C  0.88164100  0.25579672  0.38655674    -0.14820
C2368       C  0.86482997  0.27026590  0.40875348     0.07330
C2369       C  0.83487649  0.27357558  0.40382505    -0.14820
C2370       C  0.82242394  0.26449244  0.37636643    -0.14820
C2371       C  0.83950813  0.25129925  0.35365623     0.07330
C2372       C  0.86903876  0.24626970  0.35929960    -0.14820
H2373       H  0.90467446  0.25225095  0.39003031     0.11320
H2374       H  0.82128956  0.28418651  0.42067116     0.11320
H2375       H  0.79976216  0.26937634  0.37201721     0.11320
H2376       H  0.88280324  0.23707284  0.34168181     0.11320
C2377       C  0.99344993  0.23535155  0.55490424    -0.14820
C2378       C  0.99390532  0.26516648  0.54775316     0.07330
C2379       C  0.51885008  0.28160045  0.55411012    -0.14820
C2380       C  0.54461574  0.26741879  0.56162042    -0.14820
C2381       C  0.54530080  0.23690370  0.56276319     0.07330
C2382       C  0.51911803  0.22127318  0.56295101    -0.14820
H2383       H  0.97406694  0.22245140  0.55115757     0.11320
H2384       H  0.51946052  0.30478190  0.54951952     0.11320
H2385       H  0.56465766  0.27982058  0.56185707     0.11320
H2386       H  0.51914674  0.19770136  0.56408579     0.11320
C2387       C  0.51512127  0.33641745  0.45036288    -0.14820
C2388       C  0.98744186  0.34921402  0.45174375     0.07330
C2389       C  0.98511109  0.37962260  0.44857409    -0.14820
C2390       C  0.51002616  0.39710036  0.44833428    -0.14820
C2391       C  0.53761264  0.38442762  0.45169480     0.07330
C2392       C  0.54003411  0.35390634  0.45053829    -0.14820
H2393       H  0.51762903  0.31308081  0.45280229     0.11320
H2394       H  0.96401054  0.39006593  0.44936561     0.11320
H2395       H  0.50743143  0.42051306  0.44917135     0.11320
H2396       H  0.56106558  0.34352748  0.45286934     0.11320
C2397       C  0.65642218  0.49005003  0.35910822    -0.14820
C2398       C  0.68568166  0.48370511  0.35313731     0.07330
C2399       C  0.70214175  0.46922720  0.37559588    -0.14820
C2400       C  0.68930389  0.46031519  0.40310298    -0.14820
C2401       C  0.65954888  0.46497903  0.40826138     0.07330
C2402       C  0.64340311  0.48054906  0.38629791    -0.14820
H2403       H  0.64307065  0.00037741  0.34179888     0.11320
H2404       H  0.72459229  0.46349946  0.37114326     0.11320
H2405       H  0.70237754  0.44883427  0.41982270     0.11320
H2406       H  0.62057083  0.48512876  0.38998753     0.11320
C2407       C  0.66730062  0.04482795  0.15262449    -0.14820
C2408       C  0.66267921  0.01490920  0.15720224     0.07330
C2409       C  0.64728965  0.49919680  0.13489161    -0.14820
C2410       C  0.63782363  0.01285447  0.10803127    -0.14820
C2411       C  0.64397503  0.04234948  0.10274479     0.07330
C2412       C  0.65839256  0.05830470  0.12548589    -0.14820
H2413       H  0.67865022  0.05760929  0.16957929     0.11320
H2414       H  0.64276097  0.47624695  0.13808442     0.11320
H2415       H  0.62761002  0.49987317  0.09043441     0.11320
H2416       H  0.66404057  0.08090792  0.12154216     0.11320
C2417       C  0.72761147  0.36196175  0.20114487    -0.14820
C2418       C  0.73983469  0.38996720  0.20078479     0.07330
C2419       C  0.77004886  0.39279593  0.19652931    -0.14820
C2420       C  0.78802399  0.36822311  0.19674484    -0.14820
C2421       C  0.77609536  0.34045696  0.20169885     0.07330
C2422       C  0.74561850  0.33739592  0.20179248    -0.14820
H2423       H  0.70445317  0.35907347  0.20456380     0.11320
H2424       H  0.78004872  0.41414975  0.19608113     0.11320
H2425       H  0.81136764  0.37133917  0.19661787     0.11320
H2426       H  0.73576918  0.31622705  0.20533916     0.11320
C2427       C  0.65729350  0.33423646  0.31361856    -0.14820
C2428       C  0.62681069  0.33337735  0.31417691     0.07330
C2429       C  0.61109165  0.35947154  0.31258227    -0.14820
C2430       C  0.62512955  0.38485006  0.30319776    -0.14820
C2431       C  0.65502385  0.38429351  0.29667055     0.07330
C2432       C  0.67144405  0.35974440  0.30483033    -0.14820
H2433       H  0.66975195  0.31427297  0.31514276     0.11320
H2434       H  0.58753117  0.35930550  0.31321827     0.11320
H2435       H  0.61219920  0.40396898  0.29811087     0.11320
H2436       H  0.69467672  0.35908765  0.30080723     0.11320
C2437       C  0.92693423  0.99879779  0.13331038    -0.14820
C2438       C  0.94201772  0.47987354  0.15287012     0.07330
C2439       C  0.95459318  0.45448520  0.14059457    -0.14820
C2440       C  0.94905780  0.44634188  0.11037067    -0.14820
C2441       C  0.93077397  0.46342244  0.09214156     0.07330
C2442       C  0.92112191  0.49045779  0.10319825    -0.14820
H2443       H  0.91679411  0.01829008  0.14218124     0.11320
H2444       H  0.96637327  0.43952294  0.15523479     0.11320
H2445       H  0.95626753  0.42522016  0.10249256     0.11320
H2446       H  0.90659285  0.00373777  0.08952751     0.11320
C2447       C  0.82913765  0.02653232  0.26271240    -0.14820
C2448       C  0.84152257  0.01201479  0.23760095     0.07330
C2449       C  0.82306413  0.00064735  0.21508810    -0.14820
C2450       C  0.79285691  0.00194943  0.21864494    -0.14820
C2451       C  0.78051062  0.01413415  0.24502154     0.07330
C2452       C  0.79883174  0.02714105  0.26665335    -0.14820
H2453       H  0.84288978  0.03502462  0.28065954     0.11320
H2454       H  0.83202934  0.98918370  0.19564668     0.11320
H2455       H  0.77920022  0.99090732  0.20220208     0.11320
H2456       H  0.78985247  0.03565724  0.28770400     0.11320
C2457       C  0.54199693  0.50478450  0.23175538    -0.14820
C2458       C  0.53046161  0.01259495  0.26029294     0.07330
C2459       C  0.54949514  0.01605010  0.28516739    -0.14820
C2460       C  0.57937253  0.01094227  0.28176923    -0.14820
C2461       C  0.59058971  0.00141767  0.25366835     0.07330
C2462       C  0.57168649  0.49891472  0.22857132    -0.14820
H2463       H  0.52780613  0.50149778  0.21233918     0.11320
H2464       H  0.54110979  0.02181653  0.30748860     0.11320
H2465       H  0.59345807  0.01307107  0.30144374     0.11320
H2466       H  0.57981729  0.49188167  0.20654784     0.11320
C2467       C  0.88666098  0.52969490  0.35226391    -0.14820
C2468       C  0.91298979  0.04077111  0.34058912     0.07330
C2469       C  0.92892600  0.06055706  0.35805173    -0.14820
C2470       C  0.92059591  0.06620780  0.38824367    -0.14820
C2471       C  0.89617874  0.05222796  0.40122617     0.07330
C2472       C  0.87813779  0.03559455  0.38233763    -0.14820
H2473       H  0.87425908  0.51406083  0.33916566     0.11320
H2474       H  0.94949235  0.06893063  0.34968217     0.11320
H2475       H  0.93488745  0.07914083  0.40240038     0.11320
H2476       H  0.85945146  0.52432237  0.39178270     0.11320
C2477       C  0.52087013  0.39620185  0.25466120    -0.14820
C2478       C  0.99046230  0.39386422  0.25561084     0.07330
C2479       C  0.97763510  0.36606769  0.25561432    -0.14820
C2480       C  0.99496910  0.34106192  0.25629995    -0.14820
C2481       C  0.52540285  0.34344956  0.25620986     0.07330
C2482       C  0.53816493  0.37123749  0.25461395    -0.14820
H2483       H  0.53128667  0.41735804  0.25454993     0.11320
H2484       H  0.95422105  0.36366386  0.25645599     0.11320
H2485       H  0.98460661  0.31990156  0.25737627     0.11320
H2486       H  0.56158715  0.37373370  0.25464367     0.11320
C2487       C  0.90845521  0.37812000  0.31011730    -0.14820
C2488       C  0.89182259  0.40354646  0.31303973     0.07330
C2489       C  0.86142361  0.40173868  0.31208870    -0.14820
C2490       C  0.84825787  0.37628321  0.30201541    -0.14820
C2491       C  0.86553742  0.35267089  0.29292292     0.07330
C2492       C  0.89539382  0.35282071  0.29939709    -0.14820
H2493       H  0.93198038  0.37899652  0.31109641     0.11320
H2494       H  0.84825964  0.42113225  0.31463891     0.11320
H2495       H  0.82500265  0.37630320  0.29818104     0.11320
H2496       H  0.90897230  0.33436289  0.29367544     0.11320
Fe2497     Fe  0.95820405  0.97064934  0.29732570     1.65780
Fe2498     Fe  0.91420621  0.95129185  0.24122526     1.73250
Fe2499     Fe  0.93632445  0.52038615  0.24574717     1.54410
O2500       O  0.93499372  0.53730472  0.29078454    -0.83150
O2501       O  0.93479576  0.95843322  0.20070234    -0.81450
O2502       O  0.93230816  0.99807436  0.32124658    -0.85650
O2503       O  0.98895357  0.00310744  0.29057136    -0.80510
O2504       O  0.89135754  0.52267223  0.24727384    -0.82280
O2505       O  0.94578087  0.91935677  0.25053640    -0.85030
C2506       C  0.99860187  0.51213623  0.26508113     0.95740
C2507       C  0.92738455  0.52474718  0.31581486     1.03180
O2508       O  0.93650305  0.98086788  0.26084517    -1.14010
O2509       O  0.89288007  0.94422561  0.28151106    -0.76440
O2510       O  0.93146534  0.93612574  0.30999120    -0.79930
O2511       O  0.98143193  0.51893045  0.24348045    -0.80620
C2512       C  0.90543277  0.93050372  0.30272139     0.94640
O2513       O  0.98312043  0.94212960  0.27262963    -0.78580
O2514       O  0.88002930  0.97890347  0.22926755    -0.83770
C2515       C  0.93819297  0.48221494  0.18635792     0.97260
C2516       C  0.87283234  0.50439869  0.23765009     1.03180
O2517       O  0.93613293  0.50704793  0.19942199    -0.79410
C2518       C  0.97229885  0.92010570  0.25925383     1.01480
Fe2519     Fe  0.72081433  0.94694930  0.27067615     1.65780
Fe2520     Fe  0.66366818  0.94675637  0.22342463     1.73250
Fe2521     Fe  0.68471203  0.50964067  0.25625439     1.54410
O2522       O  0.69140362  0.50575809  0.30373616    -0.83150
O2523       O  0.67364964  0.97287444  0.18667539    -0.81450
O2524       O  0.70651439  0.96013562  0.31198931    -0.85650
O2525       O  0.75050020  0.98008494  0.26815295    -0.80510
O2526       O  0.64081611  0.50561887  0.26623801    -0.82280
O2527       O  0.69541595  0.91574863  0.21078430    -0.85030
C2528       C  0.75131286  0.50408850  0.25398249     0.95740
C2529       C  0.69585651  0.98383005  0.32126203     1.03180
O2530       O  0.68985955  0.96820187  0.24989613    -1.14010
O2531       O  0.65150114  0.92197029  0.26028891    -0.76440
O2532       O  0.69546097  0.91018006  0.27726913    -0.79930
O2533       O  0.72848428  0.51768510  0.24586172    -0.80620
C2534       C  0.66801704  0.90715737  0.27753138     0.94640
O2535       O  0.73664846  0.93251416  0.22988230    -0.78580
O2536       O  0.62781295  0.97305731  0.23154531    -0.83770
C2537       C  0.67147721  0.50056299  0.18613047     0.97260
C2538       C  0.62151276  0.49293632  0.25046650     1.03180
O2539       O  0.67470525  0.51631783  0.20997728    -0.79410
C2540       C  0.72303498  0.91468527  0.21333662     1.01480
Fe2541     Fe  0.93038307  0.83013863  0.52201184     1.65780
Fe2542     Fe  0.93139283  0.77274938  0.47541571     1.73250
Fe2543     Fe  0.86815008  0.79350858  0.50759140     1.54420
O2544       O  0.87157567  0.80058185  0.55509065    -0.83150
O2545       O  0.90585618  0.78251326  0.43854439    -0.81450
O2546       O  0.91718135  0.81555762  0.56328470    -0.85650
O2547       O  0.89695585  0.85946700  0.51963977    -0.80510
O2548       O  0.87219561  0.74964606  0.51813402    -0.82280
O2549       O  0.96211372  0.80471975  0.46260938    -0.85030
C2550       C  0.87357731  0.86017508  0.50458280     0.95740
C2551       C  0.89347869  0.80478354  0.57255763     1.03180
O2552       O  0.90955327  0.79888736  0.50148025    -1.14010
O2553       O  0.95576732  0.76096730  0.51246976    -0.76440
O2554       O  0.96740654  0.80524691  0.52853897    -0.79930
O2555       O  0.86027509  0.83722583  0.49635696    -0.80620
C2556       C  0.97062894  0.77780475  0.52915544     0.94640
O2557       O  0.94479123  0.84602459  0.48105502    -0.78580
O2558       O  0.90519373  0.73677578  0.48366598    -0.83770
C2559       C  0.87829820  0.77972562  0.43774572     0.97260
C2560       C  0.88509964  0.73039041  0.50245453     1.03180
O2561       O  0.86209968  0.78291023  0.46137651    -0.79410
C2562       C  0.96282177  0.83240542  0.46466711     1.01480
Fe2563     Fe  0.90978357  0.56608293  0.54553544     1.65780
Fe2564     Fe  0.92754728  0.52346612  0.48768663     1.73250
Fe2565     Fe  0.85859698  0.54509158  0.49564104     1.54420
O2566       O  0.84296896  0.54316430  0.54127726    -0.83150
O2567       O  0.91894732  0.54515653  0.44813733    -0.81450
O2568       O  0.88298488  0.53972953  0.57007294    -0.85650
O2569       O  0.87730407  0.59709144  0.54049977    -0.80510
O2570       O  0.85653504  0.00011439  0.49672912    -0.82280
O2571       O  0.95974891  0.55502708  0.49634749    -0.85030
C2572       C  0.86723824  0.60708404  0.51561808     0.95740
C2573       C  0.85614928  0.53510063  0.56569867     1.03180
O2574       O  0.89853805  0.54509169  0.50912380    -1.14010
O2575       O  0.93633538  0.50094307  0.52684601    -0.76440
O2576       O  0.94436961  0.53879636  0.55647090    -0.79930
O2577       O  0.85988283  0.59024359  0.49400900    -0.80620
C2578       C  0.94966133  0.51280136  0.54865096     0.94640
O2579       O  0.93759128  0.59166238  0.52033517    -0.78580
O2580       O  0.89953450  0.98931867  0.47630477    -0.83770
C2581       C  0.89476088  0.54821660  0.43474800     0.97260
C2582       C  0.87448143  0.98178933  0.48602916     1.03180
O2583       O  0.87039538  0.54550870  0.44874722    -0.79410
C2584       C  0.95916911  0.58136837  0.50571601     1.01480
Fe2585     Fe  0.71046434  0.71764582  0.79459963     1.65780
Fe2586     Fe  0.66709872  0.70025829  0.73725246     1.73250
Fe2587     Fe  0.68856478  0.76928053  0.74521535     1.54410
O2588       O  0.68736138  0.78439989  0.79096526    -0.83150
O2589       O  0.68800086  0.70940693  0.69737773    -0.81450
O2590       O  0.68429311  0.74401902  0.81958916    -0.85650
O2591       O  0.74114578  0.75046649  0.78936143    -0.80510
O2592       O  0.64366956  0.77112956  0.74699654    -0.82280
O2593       O  0.69898887  0.66819562  0.74522807    -0.85030
C2594       C  0.75077865  0.76094360  0.76445672     0.95740
C2595       C  0.67952577  0.77091289  0.81537377     1.03180
O2596       O  0.68892450  0.72916349  0.75850470    -1.14010
O2597       O  0.64530256  0.69086126  0.77669496    -0.76440
O2598       O  0.68360285  0.68267378  0.80573084    -0.79930
O2599       O  0.73367455  0.76824986  0.74296113    -0.80620
C2600       C  0.65751478  0.67738624  0.79830618     0.94640
O2601       O  0.73582062  0.69028594  0.76891389    -0.78580
O2602       O  0.63263064  0.72823746  0.72660398    -0.83770
C2603       C  0.69042992  0.73378157  0.68401680     0.97260
C2604       C  0.62523189  0.75322748  0.73647313     1.03180
O2605       O  0.68804965  0.75800001  0.69822547    -0.79410
C2606       C  0.72543735  0.66882080  0.75425683     1.01480
Fe2607     Fe  0.97298060  0.69910493  0.77192938     1.65780
Fe2608     Fe  0.91658561  0.69911540  0.72385105     1.73250
Fe2609     Fe  0.93717643  0.76175178  0.75718038     1.54420
O2610       O  0.94404279  0.75768667  0.80472732    -0.83150
O2611       O  0.92668096  0.72556339  0.68748557    -0.81450
O2612       O  0.95731776  0.71146980  0.81290452    -0.85650
O2613       O  0.00225095  0.73276984  0.77120125    -0.80510
O2614       O  0.89325034  0.75767146  0.76719181    -0.82280
O2615       O  0.94888374  0.66876755  0.71120277    -0.85030
C2616       C  0.00358738  0.75574852  0.75531005     0.95740
C2617       C  0.94723425  0.73542467  0.82213471     1.03180
O2618       O  0.94227716  0.72037452  0.75080386    -1.14010
O2619       O  0.90423078  0.67372394  0.76016806    -0.76440
O2620       O  0.94815082  0.66179132  0.77703396    -0.79930
O2621       O  0.98097885  0.76916519  0.74621560    -0.80620
C2622       C  0.92075819  0.65844241  0.77691454     0.94640
O2623       O  0.98979389  0.68552912  0.73120695    -0.78580
O2624       O  0.88060320  0.72516511  0.73218824    -0.83770
C2625       C  0.92371004  0.75314716  0.68714236     0.97260
C2626       C  0.87410740  0.74492909  0.75120203     1.03180
O2627       O  0.92678683  0.76880450  0.71105717    -0.79410
C2628       C  0.97648537  0.66783714  0.71417679     1.01480
Fe2629     Fe  0.65985968  0.81615622  0.04543286     1.65780
Fe2630     Fe  0.67843869  0.77360540  0.98782361     1.73250
Fe2631     Fe  0.60936167  0.79466987  0.99512581     1.54410
O2632       O  0.59315704  0.79379432  0.04054444    -0.83150
O2633       O  0.67004142  0.79526909  0.94818113    -0.81450
O2634       O  0.63277812  0.79002873  0.06988102    -0.85650
O2635       O  0.62732441  0.84700957  0.03956390    -0.80510
O2636       O  0.60760564  0.74973415  0.99705123    -0.82280
O2637       O  0.71042962  0.80533796  0.99676754    -0.85030
C2638       C  0.61753034  0.85676873  0.01443705     0.95740
C2639       C  0.60584372  0.78618431  0.06539335     1.03180
O2640       O  0.64913591  0.79499455  0.00901900    -1.14010
O2641       O  0.68700590  0.75112762  0.02703173    -0.76440
O2642       O  0.69446194  0.78893404  0.05692370    -0.79930
O2643       O  0.61061098  0.83975873  0.99279893    -0.80620
C2644       C  0.69999714  0.76297904  0.04905942     0.94640
O2645       O  0.68773895  0.84176485  0.02050340    -0.78580
O2646       O  0.65056655  0.73933077  0.97626411    -0.83770
C2647       C  0.64592415  0.79696629  0.93442888     0.97260
C2648       C  0.62563525  0.73156537  0.98619233     1.03180
O2649       O  0.62154571  0.79400147  0.94833664    -0.79410
C2650       C  0.70951959  0.83167889  0.00611184     1.01480
Fe2651     Fe  0.68039590  0.57919942  0.02061902     1.65780
Fe2652     Fe  0.68078104  0.52231172  0.97329223     1.73250
Fe2653     Fe  0.61793668  0.54315150  0.00628042     1.54410
O2654       O  0.62171941  0.55000422  0.05378165    -0.83150
O2655       O  0.65476904  0.53220526  0.93665315    -0.81450
O2656       O  0.66768748  0.56385626  0.06181597    -0.85650
O2657       O  0.64693963  0.60854500  0.01938645    -0.80510
O2658       O  0.62187927  0.99924752  0.01656108    -0.82280
O2659       O  0.71142820  0.55443148  0.96052894    -0.85030
C2660       C  0.62383450  0.60968813  0.00391332     0.95740
C2661       C  0.64384712  0.55340517  0.07112658     1.03180
O2662       O  0.65928903  0.54830502  0.99982069    -1.14010
O2663       O  0.70550572  0.51019378  0.01007030    -0.76440
O2664       O  0.71744805  0.55434775  0.02611951    -0.79930
O2665       O  0.61042584  0.58696706  0.99520876    -0.80620
C2666       C  0.72038005  0.52690511  0.02689156     0.94640
O2667       O  0.69439250  0.59560202  0.97969192    -0.78580
O2668       O  0.65455322  0.98640224  0.98169629    -0.83770
C2669       C  0.62717038  0.52946133  0.93628413     0.97260
C2670       C  0.63463725  0.98001783  0.00070322     1.03180
O2671       O  0.61135665  0.53271636  0.96016975    -0.79410
C2672       C  0.71235865  0.58208936  0.96309206     1.01480
Fe2673     Fe  0.61062791  0.66906452  0.54589016     1.65780
Fe2674     Fe  0.59219283  0.71268297  0.48866101     1.73250
Fe2675     Fe  0.66131560  0.69119039  0.49547058     1.54410
O2676       O  0.67728829  0.69263197  0.54092177    -0.83150
O2677       O  0.60060381  0.69192526  0.44866130    -0.81450
O2678       O  0.63750011  0.69517567  0.57029646    -0.85650
O2679       O  0.64319097  0.63830399  0.54017245    -0.80510
O2680       O  0.66320864  0.73611663  0.49674147    -0.82280
O2681       O  0.56029861  0.68074324  0.49729914    -0.85030
C2682       C  0.65321134  0.62882545  0.51511299     0.95740
C2683       C  0.66421321  0.70030948  0.56552238     1.03180
O2684       O  0.62147281  0.69076867  0.50949034    -1.14010
O2685       O  0.58353250  0.73436748  0.52819543    -0.76440
O2686       O  0.57606806  0.69596204  0.55764954    -0.79930
O2687       O  0.66029844  0.64607649  0.49356434    -0.80620
C2688       C  0.57070961  0.72211964  0.55028942     0.94640
O2689       O  0.58267246  0.64379409  0.52083479    -0.78580
O2690       O  0.61988051  0.74724370  0.47739158    -0.83770
C2691       C  0.62470409  0.68898982  0.43498304     0.97260
C2692       C  0.64508374  0.75460763  0.48661626     1.03180
O2693       O  0.64915916  0.69137025  0.44873713    -0.79410
C2694       C  0.56103492  0.65423566  0.50639620     1.01480
Fe2695     Fe  0.59237203  0.90623632  0.52261867     1.65780
Fe2696     Fe  0.59169616  0.96251685  0.47401362     1.73250
Fe2697     Fe  0.65451633  0.94246957  0.50734015     1.54410
O2698       O  0.65060944  0.93536858  0.55496835    -0.83150
O2699       O  0.61809288  0.95279997  0.43773720    -0.81450
O2700       O  0.60427066  0.92266431  0.56329284    -0.85650
O2701       O  0.62660440  0.87763271  0.52300477    -0.80510
O2702       O  0.65019151  0.98632706  0.51720895    -0.82280
O2703       O  0.56204238  0.92955184  0.46145467    -0.85030
C2704       C  0.64873811  0.87617656  0.50597997     0.95740
C2705       C  0.62832713  0.93258999  0.57238149     1.03180
O2706       O  0.61322749  0.93712197  0.50115252    -1.14010
O2707       O  0.56620681  0.97449441  0.51018964    -0.76440
O2708       O  0.55456943  0.93031302  0.52685078    -0.79930
O2709       O  0.66183528  0.89877935  0.49623849    -0.80620
C2710       C  0.55102089  0.95769440  0.52681092     0.94640
O2711       O  0.57940836  0.88890699  0.48200500    -0.78580
O2712       O  0.61729860  0.99887569  0.48236372    -0.83770
C2713       C  0.64562620  0.95578017  0.43725685     0.97260
C2714       C  0.63709905  0.50545538  0.50132645     1.03180
O2715       O  0.66139926  0.95299233  0.46116784    -0.79410
C2716       C  0.56168175  0.90188140  0.46457975     1.01480
Fe2717     Fe  0.81176186  0.51740788  0.79545352     1.65780
Fe2718     Fe  0.85582737  0.53479877  0.73827705     1.73250
Fe2719     Fe  0.83350410  0.96593565  0.74623540     1.54420
O2720       O  0.83413057  0.95031291  0.79198278    -0.83150
O2721       O  0.83491818  0.52628957  0.69844461    -0.81450
O2722       O  0.83700883  0.99031185  0.82084075    -0.85650
O2723       O  0.78053572  0.98520904  0.78992801    -0.80510
O2724       O  0.87839630  0.96360693  0.74816969    -0.82280
O2725       O  0.82443414  0.56730584  0.74619226    -0.85030
C2726       C  0.77115579  0.97487505  0.76499709     0.95740
C2727       C  0.84125144  0.96335439  0.81672610     1.03180
O2728       O  0.83353714  0.50592971  0.75953450    -1.14010
O2729       O  0.87752805  0.54351602  0.77776462    -0.76440
O2730       O  0.83912555  0.55182505  0.80671910    -0.79930
O2731       O  0.78845434  0.96744985  0.74373454    -0.80620
C2732       C  0.86527170  0.55703166  0.79923997     0.94640
O2733       O  0.78712628  0.54537077  0.76954290    -0.78580
O2734       O  0.88991818  0.50649168  0.72754464    -0.83770
C2735       C  0.83198166  0.00206459  0.68512470     0.97260
C2736       C  0.89703205  0.98138883  0.73752811     1.03180
O2737       O  0.83428448  0.97768014  0.69927136    -0.79410
C2738       C  0.79787902  0.56685016  0.75495381     1.01480
Fe2739     Fe  0.54896233  0.53615167  0.77225958     1.65780
Fe2740     Fe  0.60515436  0.53676376  0.72367175     1.73250
Fe2741     Fe  0.58501018  0.97379935  0.75723852     1.54420
O2742       O  0.57837979  0.97736075  0.80485669    -0.83150
O2743       O  0.59473607  0.01072824  0.68744678    -0.81450
O2744       O  0.56474313  0.52335853  0.81309325    -0.85650
O2745       O  0.51972076  0.00242251  0.77147674    -0.80510
O2746       O  0.62886331  0.97812765  0.76694882    -0.82280
O2747       O  0.57278581  0.56722121  0.71137994    -0.85030
C2748       C  0.51854525  0.97937559  0.75590014     0.95740
C2749       C  0.57509607  0.99945948  0.82225100     1.03180
O2750       O  0.57964207  0.51518739  0.75086299    -1.14010
O2751       O  0.61767556  0.56170822  0.75989713    -0.76440
O2752       O  0.57385614  0.57340413  0.77734821    -0.79930
O2753       O  0.54122890  0.96614857  0.74673939    -0.80620
C2754       C  0.60126396  0.57671500  0.77695059     0.94640
O2755       O  0.53197306  0.55024424  0.73173558    -0.78580
O2756       O  0.64130855  0.51070842  0.73156799    -0.83770
C2757       C  0.59800984  0.98319150  0.68701578     0.97260
C2758       C  0.64792815  0.99100361  0.75078474     1.03180
O2759       O  0.59528376  0.96726946  0.71097753    -0.79410
C2760       C  0.54519416  0.56807030  0.71454353     1.01480
Fe2761     Fe  0.56022234  0.76660514  0.29711649     1.65780
Fe2762     Fe  0.60207552  0.78802409  0.23981186     1.73250
Fe2763     Fe  0.58426946  0.71796293  0.24541554     1.54410
O2764       O  0.58586831  0.70052090  0.29034482    -0.83150
O2765       O  0.58020438  0.78002057  0.20036348    -0.81450
O2766       O  0.58681658  0.73945219  0.32086164    -0.85650
O2767       O  0.53032680  0.73349553  0.29000560    -0.80510
O2768       O  0.62949088  0.71809804  0.24709283    -0.82280
O2769       O  0.57027301  0.81890743  0.25032528    -0.85030
C2770       C  0.52143260  0.72394768  0.26451668     0.95740
C2771       C  0.59253057  0.71297818  0.31553404     1.03180
O2772       O  0.58193482  0.75740465  0.26042677    -1.14010
O2773       O  0.62456899  0.79594438  0.27900538    -0.76440
O2774       O  0.58672748  0.80133682  0.30968214    -0.79930
O2775       O  0.53910766  0.71749079  0.24318337    -0.80620
C2776       C  0.61251682  0.80771842  0.30175584     0.94640
O2777       O  0.53403605  0.79501808  0.27322113    -0.78580
O2778       O  0.63642432  0.76177837  0.22641747    -0.83770
C2779       C  0.57990416  0.75622228  0.18587579     0.97260
C2780       C  0.64628065  0.73789856  0.23694169     1.03180
O2781       O  0.58433732  0.73165564  0.19908119    -0.79410
C2782       C  0.54401569  0.81746076  0.25965428     1.01480
Fe2783     Fe  0.80258325  0.78836800  0.27344888     1.65780
Fe2784     Fe  0.85600253  0.78792580  0.22255012     1.73250
Fe2785     Fe  0.83494608  0.72534016  0.25676052     1.54420
O2786       O  0.82885501  0.72993105  0.30476774    -0.83150
O2787       O  0.84496816  0.76135931  0.18697554    -0.81450
O2788       O  0.82262512  0.77773267  0.31259379    -0.85650
O2789       O  0.77596434  0.75313143  0.27921369    -0.80510
O2790       O  0.87920430  0.72816409  0.26542830    -0.82280
O2791       O  0.82215081  0.81716533  0.21046912    -0.85030
C2792       C  0.77002726  0.73473425  0.25896416     0.95740
C2793       C  0.82945313  0.75257729  0.32192205     1.03180
O2794       O  0.83153145  0.76686120  0.25067676    -1.14010
O2795       O  0.86941790  0.81382710  0.25797845    -0.76440
O2796       O  0.82559908  0.82676872  0.27335510    -0.79930
O2797       O  0.79033062  0.72037095  0.24627133    -0.80620
C2798       C  0.85294076  0.82952504  0.27421960     0.94640
O2799       O  0.78264268  0.79955813  0.23341932    -0.78580
O2800       O  0.89213214  0.76180580  0.23096519    -0.83770
C2801       C  0.84784754  0.73381318  0.18655415     0.97260
C2802       C  0.89844345  0.74142003  0.24965353     1.03180
O2803       O  0.84474845  0.71799505  0.21052250    -0.79410
C2804       C  0.79456046  0.81704930  0.21472122     1.01480
Fe2805     Fe  0.84239707  0.65595271  0.02281049     1.65780
Fe2806     Fe  0.84143522  0.71223159  0.97393256     1.73250
Fe2807     Fe  0.90453824  0.69212991  0.00701274     1.54410
O2808       O  0.90082437  0.68531058  0.05466455    -0.83150
O2809       O  0.86803154  0.70321670  0.93751156    -0.81450
O2810       O  0.85452349  0.67268628  0.06331076    -0.85650
O2811       O  0.87668465  0.62733283  0.02310563    -0.80510
O2812       O  0.90022848  0.73589096  0.01664641    -0.82280
O2813       O  0.81222208  0.67895326  0.96110048    -0.85030
C2814       C  0.89929000  0.62585593  0.00675159     0.95740
C2815       C  0.87858398  0.68278490  0.07215538     1.03180
O2816       O  0.86315887  0.68676700  0.00096724    -1.14010
O2817       O  0.81572352  0.72389641  0.01002758    -0.76440
O2818       O  0.80448832  0.67986089  0.02730072    -0.79930
O2819       O  0.91207494  0.64840391  0.99643082    -0.80620
C2820       C  0.80079495  0.70721269  0.02699378     0.94640
O2821       O  0.82903724  0.63836312  0.98242997    -0.78580
O2822       O  0.86634306  0.74892234  0.98292644    -0.83770
C2823       C  0.89560081  0.70590989  0.93704162     0.97260
C2824       C  0.88623508  0.75512233  0.00187724     1.03180
O2825       O  0.91135306  0.70255658  0.96087493    -0.79410
C2826       C  0.81161849  0.65131357  0.96460958     1.01480
Fe2827     Fe  0.86008791  0.91994154  0.04854764     1.65780
Fe2828     Fe  0.84169590  0.96421455  0.99213682     1.73250
Fe2829     Fe  0.91040936  0.94029659  0.99710077     1.54420
O2830       O  0.92691724  0.94158953  0.04242263    -0.83150
O2831       O  0.84891257  0.94444310  0.95137842    -0.81450
O2832       O  0.88751302  0.94592893  0.07230227    -0.85650
O2833       O  0.89249246  0.88951038  0.04277014    -0.80510
O2834       O  0.91373034  0.98521974  0.99804817    -0.82280
O2835       O  0.80963308  0.93225707  0.00050355    -0.85030
C2836       C  0.90061977  0.87863170  0.01766607     0.95740
C2837       C  0.91440527  0.94979829  0.06719831     1.03180
O2838       O  0.87081211  0.94128615  0.01190686    -1.14010
O2839       O  0.83419176  0.98523723  0.03240384    -0.76440
O2840       O  0.82551550  0.94649197  0.06064652    -0.79930
O2841       O  0.90817968  0.89498516  0.99552027    -0.80620
C2842       C  0.82038088  0.97271012  0.05360152     0.94640
O2843       O  0.83195418  0.89493368  0.02361215    -0.78580
O2844       O  0.86989972  0.99838019  0.98128859    -0.83770
C2845       C  0.87254852  0.93994643  0.93728501     0.97260
C2846       C  0.89581231  0.50451431  0.98922202     1.03180
O2847       O  0.89735445  0.94060846  0.95059298    -0.79410
C2848       C  0.81043128  0.90556674  0.00911682     1.01480
C2849       C  0.89781857  0.58488671  0.97067623    -0.14820
C2850       C  0.90853773  0.59634788  0.99813851     0.07330
C2851       C  0.91911657  0.57717215  0.02058922    -0.14820
C2852       C  0.91760554  0.54697822  0.01626262    -0.14820
C2853       C  0.90445735  0.53554139  0.98992126     0.07330
C2854       C  0.89542832  0.55474319  0.96675365    -0.14820
H2855       H  0.88859246  0.59924091  0.95352905     0.11320
H2856       H  0.92645996  0.58549609  0.04238092     0.11320
H2857       H  0.92425133  0.53262248  0.03468816     0.11320
H2858       H  0.88499273  0.54645842  0.94639308     0.11320
C2859       C  0.88284698  0.83011706  0.03535336    -0.14820
C2860       C  0.89980404  0.84650767  0.01461359     0.07330
C2861       C  0.91348564  0.83208527  0.99024102    -0.14820
C2862       C  0.90989248  0.80195866  0.98656426    -0.14820
C2863       C  0.89258740  0.78598692  0.00716167     0.07330
C2864       C  0.87924548  0.80020049  0.03160996    -0.14820
H2865       H  0.87150192  0.84057223  0.05403329     0.11320
H2866       H  0.92645075  0.84412766  0.97380330     0.11320
H2867       H  0.92007762  0.79120886  0.96733623     0.11320
H2868       H  0.86540915  0.78824870  0.04735190     0.11320
C2869       C  0.86792258  0.73751334  0.13337185    -0.14820
C2870       C  0.85747928  0.72008046  0.15761357     0.07330
C2871       C  0.85895399  0.68964478  0.15479430    -0.14820
C2872       C  0.86897680  0.67702302  0.12767541    -0.14820
C2873       C  0.87855245  0.69454099  0.10325610     0.07330
C2874       C  0.87850371  0.72485431  0.10657962    -0.14820
H2875       H  0.86765459  0.76102555  0.13491955     0.11320
H2876       H  0.85158336  0.67558614  0.17318519     0.11320
H2877       H  0.86787860  0.65361320  0.12512745     0.11320
H2878       H  0.88463883  0.73881529  0.08757566     0.11320
C2879       C  0.69310647  0.70804289  0.24059286    -0.14820
C2880       C  0.67838526  0.73497865  0.23904028     0.07330
C2881       C  0.69453922  0.76065589  0.24209155    -0.14820
C2882       C  0.72412780  0.75972941  0.24771479    -0.14820
C2883       C  0.73912283  0.73318706  0.24955863     0.07330
C2884       C  0.72353517  0.70716496  0.24530878    -0.14820
H2885       H  0.68111965  0.68787380  0.23856086     0.11320
H2886       H  0.68405086  0.78177734  0.24166236     0.11320
H2887       H  0.73516592  0.78014162  0.25156416     0.11320
H2888       H  0.73450717  0.68637907  0.24705311     0.11320
C2889       C  0.97047340  0.71799003  0.28401242    -0.14820
C2890       C  0.98967800  0.72261010  0.25937505     0.07330
C2891       C  0.97828027  0.73114333  0.23097258    -0.14820
C2892       C  0.94852292  0.73665846  0.22776051    -0.14820
C2893       C  0.92943455  0.73307629  0.25268301     0.07330
C2894       C  0.94055364  0.72274444  0.28056926    -0.14820
H2895       H  0.97876004  0.71168895  0.30623828     0.11320
H2896       H  0.99261408  0.73537243  0.21176773     0.11320
H2897       H  0.94049547  0.74434020  0.20589780     0.11320
H2898       H  0.92634649  0.71977821  0.30011723     0.11320
C2899       C  0.94001844  0.95864616  0.76347539    -0.14820
C2900       C  0.92834175  0.97361613  0.73816685     0.07330
C2901       C  0.94744573  0.98486909  0.71597288    -0.14820
C2902       C  0.97757102  0.98292452  0.72000422    -0.14820
C2903       C  0.98920601  0.97021418  0.74655018     0.07330
C2904       C  0.97022572  0.95742218  0.76790411    -0.14820
H2905       H  0.92579872  0.95016641  0.78117806     0.11320
H2906       H  0.93907350  0.99663375  0.69636142     0.11320
H2907       H  0.49174687  0.99382362  0.70376371     0.11320
H2908       H  0.97864836  0.94848696  0.78906586     0.11320
C2909       C  0.72045110  0.96992346  0.78551181    -0.14820
C2910       C  0.73933667  0.97347013  0.76041523     0.07330
C2911       C  0.72757011  0.98046232  0.73172798    -0.14820
C2912       C  0.69774124  0.98554644  0.72858611    -0.14820
C2913       C  0.67897073  0.98303326  0.75389903     0.07330
C2914       C  0.69045708  0.97422346  0.78217720    -0.14820
H2915       H  0.72902791  0.96475544  0.80793038     0.11320
H2916       H  0.74165243  0.98377892  0.71212835     0.11320
H2917       H  0.68939520  0.99204514  0.70643954     0.11320
H2918       H  0.67646982  0.97211236  0.80201895     0.11320
C2919       C  0.83642300  0.92998237  0.86117735    -0.14820
C2920       C  0.85411470  0.94751246  0.84266815     0.07330
C2921       C  0.88126275  0.95670177  0.85382922    -0.14820
C2922       C  0.88935812  0.95087680  0.88411042    -0.14820
C2923       C  0.87006903  0.93630259  0.90377467     0.07330
C2924       C  0.84431251  0.92447104  0.89154673    -0.14820
H2925       H  0.81518489  0.92321024  0.85325078     0.11320
H2926       H  0.89499093  0.97070772  0.83996291     0.11320
H2927       H  0.90908745  0.96053670  0.89295230     0.11320
H2928       H  0.82899431  0.91319252  0.90627271     0.11320
C2929       C  0.62082576  0.98650653  0.63506935    -0.14820
C2930       C  0.60770499  0.96947874  0.65815028     0.07330
C2931       C  0.60637719  0.93916455  0.65435668    -0.14820
C2932       C  0.61619769  0.92642303  0.62725672    -0.14820
C2933       C  0.62829972  0.94360965  0.60381386     0.07330
C2934       C  0.63120321  0.97365275  0.60826388    -0.14820
H2935       H  0.62281777  0.00985940  0.63756366     0.11320
H2936       H  0.59687127  0.92540302  0.67189580     0.11320
H2937       H  0.61292945  0.90331504  0.62386743     0.11320
H2938       H  0.63946725  0.98746803  0.59005947     0.11320
C2939       C  0.59861548  0.67169456  0.38858971    -0.14820
C2940       C  0.62311863  0.68541367  0.40143737     0.07330
C2941       C  0.64132696  0.70198594  0.38239937    -0.14820
C2942       C  0.63297813  0.70798202  0.35225682    -0.14820
C2943       C  0.60669260  0.69700752  0.34061374     0.07330
C2944       C  0.59049225  0.67739578  0.35831906    -0.14820
H2945       H  0.58417499  0.65882860  0.40285421     0.11320
H2946       H  0.66007086  0.71307824  0.39174193     0.11320
H2947       H  0.64553856  0.72355190  0.33901837     0.11320
H2948       H  0.56992339  0.66915013  0.35000505     0.11320
C2949       C  0.64255421  0.55532691  0.47905126    -0.14820
C2950       C  0.64498341  0.53653900  0.50440398     0.07330
C2951       C  0.65369067  0.54803302  0.53261990    -0.14820
C2952       C  0.65799935  0.57806617  0.53584390    -0.14820
C2953       C  0.65456614  0.59696459  0.51069079     0.07330
C2954       C  0.64764759  0.58517857  0.48207544    -0.14820
H2955       H  0.63613886  0.54696801  0.45694889     0.11320
H2956       H  0.65573560  0.53402265  0.55248398     0.11320
H2957       H  0.66310156  0.58665762  0.55821634     0.11320
H2958       H  0.64441296  0.59926096  0.46243708     0.11320
C2959       C  0.63966799  0.80539670  0.46623810    -0.14820
C2960       C  0.65266839  0.78601154  0.48702900     0.07330
C2961       C  0.66959183  0.79741648  0.51095475    -0.14820
C2962       C  0.67122103  0.82759363  0.51557009    -0.14820
C2963       C  0.65681115  0.84681265  0.49572031     0.07330
C2964       C  0.64194087  0.83548655  0.47041995    -0.14820
H2965       H  0.62640130  0.79726936  0.44771114     0.11320
H2966       H  0.67948448  0.78298942  0.52760182     0.11320
H2967       H  0.68187838  0.83578927  0.53584189     0.11320
H2968       H  0.62982547  0.84987150  0.45543028     0.11320
C2969       C  0.58292278  0.52265007  0.90361859    -0.14820
C2970       C  0.61308115  0.51983222  0.90762317     0.07330
C2971       C  0.62938744  0.50531906  0.88506969    -0.14820
C2972       C  0.61603456  0.49508341  0.85848044    -0.14820
C2973       C  0.58622727  0.49953483  0.85373339     0.07330
C2974       C  0.56971411  0.51294387  0.87676789    -0.14820
H2975       H  0.56968329  0.53323688  0.92078185     0.11320
H2976       H  0.65256296  0.50213220  0.88781259     0.11320
H2977       H  0.62939358  0.48571003  0.84062391     0.11320
H2978       H  0.54680929  0.01740165  0.87318630     0.11320
C2979       C  0.76009588  0.64666912  0.94776096    -0.14820
C2980       C  0.78759634  0.63389303  0.95151962     0.07330
C2981       C  0.78989227  0.60335938  0.95043359    -0.14820
C2982       C  0.76490458  0.58597242  0.94977319    -0.14820
C2983       C  0.73724288  0.59886695  0.95065365     0.07330
C2984       C  0.73509690  0.62929363  0.94757733    -0.14820
H2985       H  0.75758508  0.67009121  0.94857265     0.11320
H2986       H  0.81084119  0.59289176  0.95311221     0.11320
H2987       H  0.76727884  0.56262160  0.95221963     0.11320
H2988       H  0.71402802  0.63981664  0.94806203     0.11320
C2989       C  0.76734355  0.53107860  0.05438710    -0.14820
C2990       C  0.74318456  0.51423154  0.04610622     0.07330
C2991       C  0.74288061  0.98434303  0.05285238    -0.14820
C2992       C  0.76822325  0.97073077  0.06270310    -0.14820
C2993       C  0.79403851  0.98687658  0.06457117     0.07330
C2994       C  0.79283221  0.51735832  0.06363675    -0.14820
H2995       H  0.76774699  0.55433466  0.05022974     0.11320
H2996       H  0.72403250  0.97110470  0.04770091     0.11320
H2997       H  0.76864450  0.94715642  0.06368212     0.11320
H2998       H  0.81255044  0.53014354  0.06544480     0.11320
C2999       C  0.61312920  0.90730980  0.03531331    -0.14820
C3000       C  0.61624134  0.88867144  0.01007332     0.07330
C3001       C  0.62293944  0.90073147  0.98137755    -0.14820
C3002       C  0.62823741  0.93056671  0.97835489    -0.14820
C3003       C  0.62624980  0.94906017  0.00380165     0.07330
C3004       C  0.61766542  0.93733926  0.03210491    -0.14820
H3005       H  0.60816781  0.89850349  0.05774160     0.11320
H3006       H  0.62589277  0.88685910  0.96165842     0.11320
H3007       H  0.63453637  0.93913093  0.95618494     0.11320
H3008       H  0.61595639  0.95113826  0.05203177     0.11320
C3009       C  0.63076398  0.68132774  0.96478402    -0.14820
C3010       C  0.61827600  0.70009607  0.98638306     0.07330
C3011       C  0.60212983  0.68797167  0.01070436    -0.14820
C3012       C  0.60085069  0.65766693  0.01485615    -0.14820
C3013       C  0.61484404  0.63904255  0.99419129     0.07330
C3014       C  0.62885017  0.65112115  0.96854128    -0.14820
H3015       H  0.64341031  0.69001742  0.94591308     0.11320
H3016       H  0.59263817  0.70190976  0.02794810     0.11320
H3017       H  0.59090656  0.64890064  0.03540135     0.11320
H3018       H  0.64067091  0.63721763  0.95290529     0.11320
C3019       C  0.56507524  0.78354769  0.13890545    -0.14820
C3020       C  0.57729519  0.75835516  0.15221160     0.07330
C3021       C  0.59275384  0.73903761  0.13352384    -0.14820
C3022       C  0.59910534  0.74669123  0.10324150    -0.14820
C3023       C  0.58959262  0.77341302  0.09108659     0.07330
C3024       C  0.57114419  0.79099610  0.10849336    -0.14820
H3025       H  0.55298355  0.79881777  0.15279064     0.11320
H3026       H  0.60260426  0.71965118  0.14313666     0.11320
H3027       H  0.61373881  0.73304040  0.09019070     0.11320
H3028       H  0.56404852  0.81190644  0.09973120     0.11320
C3029       C  0.72649809  0.71758617  0.05946037    -0.14820
C3030       C  0.72575753  0.74809956  0.06068370     0.07330
C3031       C  0.75190640  0.76378289  0.06017216    -0.14820
C3032       C  0.77753560  0.74977534  0.05183182    -0.14820
C3033       C  0.77715279  0.71994358  0.04502317     0.07330
C3034       C  0.75223507  0.70347486  0.05165515    -0.14820
H3035       H  0.70648596  0.70514123  0.06009016     0.11320
H3036       H  0.75183748  0.78734749  0.06121179     0.11320
H3037       H  0.79688818  0.76271638  0.04782816     0.11320
H3038       H  0.75167012  0.68029978  0.04727083     0.11320
C3039       C  0.76329326  0.83844846  0.00151616    -0.14820
C3040       C  0.73527450  0.85059377  0.00213152     0.07330
C3041       C  0.73228614  0.88104157  0.00205536    -0.14820
C3042       C  0.75684369  0.89899084  0.00257303    -0.14820
C3043       C  0.78482290  0.88680372  0.00387403     0.07330
C3044       C  0.78784240  0.85638518  0.00272805    -0.14820
H3045       H  0.76622001  0.81505439  0.00177423     0.11320
H3046       H  0.71092361  0.89095565  0.00245251     0.11320
H3047       H  0.75388493  0.92235852  0.00356497     0.11320
H3048       H  0.80918298  0.84644763  0.00357565     0.11320
C3049       C  0.90676298  0.74035803  0.85892157    -0.14820
C3050       C  0.93641049  0.73527757  0.85376071     0.07330
C3051       C  0.95287527  0.72145665  0.87663991    -0.14820
C3052       C  0.93973990  0.71198685  0.90378418    -0.14820
C3053       C  0.90969398  0.71543626  0.90820332     0.07330
C3054       C  0.89347016  0.73033209  0.88578051    -0.14820
H3055       H  0.89343269  0.75007886  0.84120710     0.11320
H3056       H  0.97562790  0.71661009  0.87275763     0.11320
H3057       H  0.95290202  0.70106782  0.92083534     0.11320
H3058       H  0.87038952  0.73398181  0.88884105     0.11320
C3059       C  0.52388192  0.64534297  0.69938688    -0.14820
C3060       C  0.99341768  0.64322214  0.70160936     0.07330
C3061       C  0.98044434  0.61562479  0.69964123    -0.14820
C3062       C  0.99768568  0.59053527  0.70001250    -0.14820
C3063       C  0.52816254  0.59266847  0.70188525     0.07330
C3064       C  0.54112262  0.62025191  0.69929372    -0.14820
H3065       H  0.53447784  0.66636438  0.70072014     0.11320
H3066       H  0.95706807  0.61326065  0.70141442     0.11320
H3067       H  0.98709397  0.56952557  0.70180886     0.11320
H3068       H  0.56450803  0.62262729  0.70076516     0.11320
C3069       C  0.92439993  0.60983923  0.80165506    -0.14820
C3070       C  0.90788045  0.63468457  0.79485917     0.07330
C3071       C  0.87800031  0.63485250  0.80144485    -0.14820
C3072       C  0.86407869  0.60909490  0.80977935    -0.14820
C3073       C  0.87990859  0.58302806  0.81049380     0.07330
C3074       C  0.91038234  0.58396955  0.80941559    -0.14820
H3075       H  0.94761241  0.60942963  0.79745563     0.11320
H3076       H  0.86500186  0.65412727  0.79730070     0.11320
H3077       H  0.84053035  0.60886820  0.81071703     0.11320
H3078       H  0.92293419  0.56403050  0.81021665     0.11320
C3079       C  0.67433259  0.74954542  0.63233257    -0.14820
C3080       C  0.69309860  0.73270362  0.65036337     0.07330
C3081       C  0.70786044  0.70915644  0.63679076    -0.14820
C3082       C  0.70129551  0.70047783  0.60693093    -0.14820
C3083       C  0.67968714  0.71509634  0.59045748     0.07330
C3084       C  0.66745101  0.74060060  0.60267731    -0.14820
H3085       H  0.66236333  0.76746088  0.64229836     0.11320
H3086       H  0.72232970  0.69572232  0.65034074     0.11320
H3087       H  0.71068287  0.68058680  0.59812406     0.11320
H3088       H  0.65051557  0.75204618  0.59032294     0.11320
C3089       C  0.58217525  0.77642266  0.76187016    -0.14820
C3090       C  0.59385750  0.76080255  0.73709719     0.07330
C3091       C  0.57474465  0.74898996  0.71544438    -0.14820
C3092       C  0.54462177  0.75109056  0.71951513    -0.14820
C3093       C  0.53297999  0.76456050  0.74556092     0.07330
C3094       C  0.55196553  0.77783861  0.76634848    -0.14820
H3095       H  0.59638756  0.78536235  0.77916737     0.11320
H3096       H  0.58310119  0.73673538  0.69624451     0.11320
H3097       H  0.53043843  0.73980571  0.70376008     0.11320
H3098       H  0.54353985  0.78735243  0.78717308     0.11320
C3099       C  0.79479267  0.75619131  0.73154492    -0.14820
C3100       C  0.78265876  0.76259021  0.76019080     0.07330
C3101       C  0.80124720  0.76568444  0.78550012    -0.14820
C3102       C  0.83129255  0.76142835  0.78241193    -0.14820
C3103       C  0.84310640  0.75312263  0.75415949     0.07330
C3104       C  0.82465128  0.75115735  0.72864213    -0.14820
H3105       H  0.78096947  0.75324522  0.71177671     0.11320
H3106       H  0.79239156  0.77040656  0.80789780     0.11320
H3107       H  0.84503918  0.76311180  0.80239877     0.11320
H3108       H  0.83326662  0.74506285  0.70650631     0.11320
C3109       C  0.67981157  0.80752861  0.85717187    -0.14820
C3110       C  0.66503051  0.78610743  0.84071692     0.07330
C3111       C  0.63950974  0.77388455  0.85309654    -0.14820
C3112       C  0.63059206  0.78069419  0.88280866    -0.14820
C3113       C  0.64748551  0.79935199  0.90075904     0.07330
C3114       C  0.67117660  0.81399593  0.88710851    -0.14820
H3115       H  0.69972339  0.81689339  0.84822566     0.11320
H3116       H  0.62794638  0.75709135  0.84075393     0.11320
H3117       H  0.61255388  0.76881999  0.89283163     0.11320
H3118       H  0.68464219  0.82839077  0.90058422     0.11320
C3119       C  0.74908338  0.59024856  0.74884514    -0.14820
C3120       C  0.77950407  0.59283248  0.74995239     0.07330
C3121       C  0.79206643  0.62071738  0.74920117    -0.14820
C3122       C  0.77448326  0.64555910  0.74937137    -0.14820
C3123       C  0.74403361  0.64296068  0.74958124     0.07330
C3124       C  0.73151728  0.61508360  0.74830902    -0.14820
H3125       H  0.73886116  0.56900112  0.74927575     0.11320
H3126       H  0.81545397  0.62333593  0.75019006     0.11320
H3127       H  0.78468381  0.66679731  0.75023099     0.11320
H3128       H  0.70811397  0.61243074  0.74861154     0.11320
C3129       C  0.64426044  0.59969588  0.80118018    -0.14820
C3130       C  0.61434228  0.60014279  0.79489984     0.07330
C3131       C  0.59804873  0.62505161  0.80181589    -0.16010
C3132       C  0.61231949  0.65076618  0.80930049    -0.14820
C3133       C  0.64280734  0.65147221  0.80996555     0.07330
C3134       C  0.65844018  0.62530159  0.80921350    -0.14820
H3135       H  0.65708716  0.58035076  0.79694483     0.11320
H3136       H  0.57482024  0.62566492  0.79785082     0.11320
H3137       H  0.59993034  0.67080044  0.81014984     0.11320
H3138       H  0.68199579  0.62535938  0.80984153     0.11320
C3139       C  0.82019400  0.53602843  0.60817031    -0.14820
C3140       C  0.84065744  0.52060655  0.59098080     0.07330
C3141       C  0.85230149  0.49462553  0.60293255    -0.14820
C3142       C  0.84610565  0.48593131  0.63295530    -0.14820
C3143       C  0.82861267  0.00347266  0.65155707     0.07330
C3144       C  0.81430453  0.52757506  0.63835376    -0.14820
H3145       H  0.81133218  0.55630891  0.59957387     0.11320
H3146       H  0.86840205  0.48259053  0.59002340     0.11320
H3147       H  0.85767716  0.46753906  0.64260492     0.11320
H3148       H  0.80077042  0.54151587  0.65232274     0.11320
C3149       C  0.98250761  0.63042699  0.50080011    -0.14820
C3150       C  0.98512845  0.59996227  0.50140240     0.07330
C3151       C  0.51301298  0.58747834  0.50074084    -0.14820
C3152       C  0.53780546  0.60513370  0.50132717    -0.14820
C3153       C  0.53517030  0.63560058  0.50185999     0.07330
C3154       C  0.50729729  0.64808006  0.50066745    -0.14820
H3155       H  0.96126541  0.64059533  0.50121381     0.11320
H3156       H  0.51566091  0.56405538  0.50138694     0.11320
H3157       H  0.55903480  0.59496090  0.50212034     0.11320
H3158       H  0.50461565  0.67149550  0.50122173     0.11320
C3159       C  0.97642944  0.96747283  0.55859963    -0.14820
C3160       C  0.97551819  0.49795768  0.56002060     0.07330
C3161       C  0.50156645  0.51382040  0.55980298    -0.14820
C3162       C  0.52733822  0.50003245  0.55159279    -0.14820
C3163       C  0.52718224  0.97024160  0.54465098     0.07330
C3164       C  0.50231237  0.95357791  0.55096731    -0.14820
H3165       H  0.95649383  0.95489836  0.55902117     0.11320
H3166       H  0.00135060  0.53737504  0.56102170     0.11320
H3167       H  0.54663611  0.51311149  0.54781853     0.11320
H3168       H  0.50192262  0.93041861  0.54647429     0.11320
C3169       C  0.88833504  0.76450408  0.60979106    -0.14820
C3170       C  0.89370848  0.79410918  0.60430156     0.07330
C3171       C  0.90795626  0.81051961  0.62681972    -0.14820
C3172       C  0.91765169  0.79734094  0.65382285    -0.14820
C3173       C  0.91397796  0.76730742  0.65846079     0.07330
C3174       C  0.89857959  0.75116957  0.63649778    -0.14820
H3175       H  0.87825081  0.75119384  0.59238612     0.11320
H3176       H  0.91300173  0.83323978  0.62271163     0.11320
H3177       H  0.92892911  0.81043786  0.67056347     0.11320
H3178       H  0.89470538  0.72811338  0.63979933     0.11320
C3179       C  0.87744280  0.90131141  0.46864323    -0.14820
C3180       C  0.86406992  0.88933637  0.49471747     0.07330
C3181       C  0.85031061  0.90803004  0.51549302    -0.14820
C3182       C  0.85131416  0.93831470  0.51106947    -0.14820
C3183       C  0.86695911  0.95035771  0.48634730     0.07330
C3184       C  0.87910236  0.93150768  0.46461132    -0.14820
H3185       H  0.88905992  0.88736982  0.45287863     0.11320
H3186       H  0.84084037  0.89936166  0.53632922     0.11320
H3187       H  0.84211735  0.95232309  0.52842677     0.11320
H3188       H  0.89137601  0.94014302  0.44544334     0.11320
C3189       C  0.86798664  0.68761950  0.53370717    -0.14820
C3190       C  0.87663128  0.69942306  0.50545567     0.07330
C3191       C  0.87851476  0.68101250  0.47993176    -0.14820
C3192       C  0.87299740  0.65119382  0.48280972    -0.14820
C3193       C  0.86619938  0.63903983  0.51144184     0.07330
C3194       C  0.86326072  0.65759244  0.53677701    -0.14820
H3195       H  0.86635675  0.70134776  0.55369512     0.11320
H3196       H  0.88486396  0.68963335  0.45780143     0.11320
H3197       H  0.87584660  0.63738894  0.46302119     0.11320
H3198       H  0.85825434  0.64871533  0.55916331     0.11320
C3199       C  0.88164098  0.75579754  0.38655758    -0.14820
C3200       C  0.86482984  0.77026663  0.40875433     0.07330
C3201       C  0.83487629  0.77357574  0.40382604    -0.14820
C3202       C  0.82242375  0.76449220  0.37636753    -0.14820
C3203       C  0.83950802  0.75129911  0.35365732     0.07330
C3204       C  0.86903877  0.74627010  0.35930059    -0.14820
H3205       H  0.90467451  0.75225215  0.39003104     0.11320
H3206       H  0.82128928  0.78418654  0.42067217     0.11320
H3207       H  0.79976187  0.76937574  0.37201839     0.11320
H3208       H  0.88280333  0.73707337  0.34168280     0.11320
C3209       C  0.99345063  0.73534943  0.55490263    -0.14820
C3210       C  0.99390602  0.76516457  0.54775250     0.07330
C3211       C  0.51885042  0.78159854  0.55411100    -0.14820
C3212       C  0.54461591  0.76741688  0.56162201    -0.14820
C3213       C  0.54530120  0.73690177  0.56276389     0.07330
C3214       C  0.51911854  0.72127104  0.56295007    -0.14820
H3215       H  0.97406787  0.72244923  0.55115485     0.11320
H3216       H  0.51946084  0.80478013  0.54952124     0.11320
H3217       H  0.56465770  0.77981884  0.56185992     0.11320
H3218       H  0.51914740  0.69769919  0.56408414     0.11320
C3219       C  0.51512155  0.83641818  0.45036535    -0.14820
C3220       C  0.98744207  0.84921467  0.45174563     0.07330
C3221       C  0.98511124  0.87962327  0.44857640    -0.14820
C3222       C  0.51002625  0.89710108  0.44833766    -0.14820
C3223       C  0.53761266  0.88442835  0.45169887     0.07330
C3224       C  0.54003431  0.85390712  0.45054188    -0.14820
H3225       H  0.51762932  0.81308151  0.45280448     0.11320
H3226       H  0.96401064  0.89006650  0.44936753     0.11320
H3227       H  0.50743143  0.92051376  0.44917505     0.11320
H3228       H  0.56106575  0.84352830  0.45287343     0.11320
C3229       C  0.65642127  0.99004972  0.35911453    -0.14820
C3230       C  0.68568041  0.98370409  0.35314261     0.07330
C3231       C  0.70214073  0.96922588  0.37560093    -0.14820
C3232       C  0.68930348  0.96031450  0.40310871    -0.14820
C3233       C  0.65954875  0.96497911  0.40826812     0.07330
C3234       C  0.64340280  0.98054933  0.38630484    -0.14820
H3235       H  0.64307183  0.50037749  0.34179218     0.11320
H3236       H  0.72459101  0.96349759  0.37114770     0.11320
H3237       H  0.70237730  0.94883340  0.41982814     0.11320
H3238       H  0.62057073  0.98512961  0.38999508     0.11320
C3239       C  0.66729099  0.54483035  0.15262644    -0.14820
C3240       C  0.66267632  0.51490993  0.15719998     0.07330
C3241       C  0.64728724  0.99919712  0.13489700    -0.14820
C3242       C  0.63782551  0.51285494  0.10802659    -0.14820
C3243       C  0.64397103  0.54235183  0.10274419     0.07330
C3244       C  0.65838223  0.55830805  0.12548875    -0.14820
H3245       H  0.67863616  0.55761255  0.16958378     0.11320
H3246       H  0.64275350  0.97624866  0.13809313     0.11320
H3247       H  0.62760305  0.99987324  0.09044193     0.11320
H3248       H  0.66402580  0.58091285  0.12154809     0.11320
C3249       C  0.72761202  0.86196242  0.20114740    -0.14820
C3250       C  0.73983520  0.88996789  0.20078860     0.07330
C3251       C  0.77004938  0.89279686  0.19653349    -0.14820
C3252       C  0.78802455  0.86822408  0.19674811    -0.14820
C3253       C  0.77609594  0.84045773  0.20170088     0.07330
C3254       C  0.74561909  0.83739661  0.20179412    -0.14820
H3255       H  0.70445370  0.85907396  0.20456598     0.11320
H3256       H  0.78004919  0.91415072  0.19608624     0.11320
H3257       H  0.81136820  0.87134019  0.19662148     0.11320
H3258       H  0.73576980  0.81622759  0.20533985     0.11320
C3259       C  0.65729208  0.83423607  0.31362049    -0.14820
C3260       C  0.62680927  0.83337703  0.31417810     0.07330
C3261       C  0.61109028  0.85947127  0.31258386    -0.14820
C3262       C  0.62512839  0.88484995  0.30320027    -0.14820
C3263       C  0.65502278  0.88429344  0.29667361     0.07330
C3264       C  0.67144282  0.85974417  0.30483320    -0.14820
H3265       H  0.66975046  0.81427253  0.31514445     0.11320
H3266       H  0.58752979  0.85930524  0.31321935     0.11320
H3267       H  0.61219816  0.90396900  0.29811353     0.11320
H3268       H  0.69467556  0.85908746  0.30081054     0.11320
C3269       C  0.92693866  0.49879590  0.13330901    -0.14820
C3270       C  0.94201455  0.97987548  0.15287050     0.07330
C3271       C  0.95459032  0.95448780  0.14059375    -0.14820
C3272       C  0.94905455  0.94634524  0.11036962    -0.14820
C3273       C  0.93076986  0.96342577  0.09214140     0.07330
C3274       C  0.92111698  0.99046036  0.10319945    -0.14820
H3275       H  0.91679888  0.51828874  0.14217899     0.11320
H3276       H  0.96637127  0.93952550  0.15523315     0.11320
H3277       H  0.95626494  0.92522406  0.10249057     0.11320
H3278       H  0.90659843  0.50373520  0.08952554     0.11320
C3279       C  0.82913759  0.52653325  0.26270763    -0.14820
C3280       C  0.84152308  0.51201487  0.23759703     0.07330
C3281       C  0.82306514  0.50064676  0.21508411    -0.14820
C3282       C  0.79285783  0.50194893  0.21864014    -0.14820
C3283       C  0.78051091  0.51413447  0.24501601     0.07330
C3284       C  0.79883157  0.52714212  0.26664777    -0.14820
H3285       H  0.84288930  0.53502610  0.28065482     0.11320
H3286       H  0.83203077  0.48918248  0.19564332     0.11320
H3287       H  0.77920152  0.49090624  0.20219736     0.11320
H3288       H  0.78985184  0.53565895  0.28769792     0.11320
C3289       C  0.54199664  0.00478411  0.23175658    -0.14820
C3290       C  0.53046202  0.51259457  0.26029204     0.07330
C3291       C  0.54949570  0.51604893  0.28516652    -0.14820
C3292       C  0.57937309  0.51094116  0.28176802    -0.14820
C3293       C  0.59059012  0.50141738  0.25366676     0.07330
C3294       C  0.57168624  0.99891428  0.22857286    -0.14820
H3295       H  0.52780592  0.00149676  0.21234043     0.11320
H3296       H  0.54111048  0.52181477  0.30748795     0.11320
H3297       H  0.59345875  0.51306937  0.30144251     0.11320
H3298       H  0.57981717  0.99188060  0.20654967     0.11320
C3299       C  0.88666195  0.02969361  0.35226724    -0.14820
C3300       C  0.91298875  0.54077256  0.34058585     0.07330
C3301       C  0.92892459  0.56055906  0.35804811    -0.14820
C3302       C  0.92059447  0.56620986  0.38823997    -0.14820
C3303       C  0.89617771  0.55222945  0.40122261     0.07330
C3304       C  0.87813682  0.53559584  0.38233425    -0.14820
H3305       H  0.87425978  0.01405988  0.33916883     0.11320
H3306       H  0.94949084  0.56893283  0.34967848     0.11320
H3307       H  0.93488587  0.57914310  0.40239661     0.11320
H3308       H  0.85945216  0.02432142  0.39178592     0.11320
C3309       C  0.52086974  0.89620136  0.25466047    -0.14820
C3310       C  0.99046191  0.89386393  0.25561037     0.07330
C3311       C  0.97763455  0.86606746  0.25561402    -0.14820
C3312       C  0.99496841  0.84106157  0.25629950    -0.14820
C3313       C  0.52540218  0.84344902  0.25620909     0.07330
C3314       C  0.53816439  0.87123689  0.25461308    -0.14820
H3315       H  0.53128641  0.91735749  0.25454911     0.11320
H3316       H  0.95422049  0.86366378  0.25645598     0.11320
H3317       H  0.98460581  0.81990127  0.25737596     0.11320
H3318       H  0.56158662  0.87373299  0.25464261     0.11320
C3319       C  0.90845527  0.87811957  0.31011910    -0.14820
C3320       C  0.89182275  0.90354614  0.31304108     0.07330
C3321       C  0.86142377  0.90173849  0.31209011    -0.14820
C3322       C  0.84825795  0.87628299  0.30201706    -0.14820
C3323       C  0.86553744  0.85267055  0.29292483     0.07330
C3324       C  0.89539380  0.85282024  0.29939917    -0.14820
H3325       H  0.93198045  0.87899599  0.31109821     0.11320
H3326       H  0.84825988  0.92113215  0.31464005     0.11320
H3327       H  0.82500274  0.87630306  0.29818257     0.11320
H3328       H  0.90897222  0.83436232  0.29367772     0.11320
loop_ 
_geom_bond_atom_site_label_1 
_geom_bond_atom_site_label_2 
_geom_bond_distance 
_geom_bond_site_symmetry_2 
_ccdc_geom_bond_type 
Fe1          O17   2.051       .  S
Fe1           O7   2.074       .  S
Fe1          O14   2.079       .  S
Fe1           O6   2.027       .  S
Fe1          O12   1.940       .  S
Fe2           O5   2.033       .  S
Fe2           O9   2.104       .  S
Fe2          O13   2.039       .  S
Fe2          O18   2.086       .  S
Fe2          O12   1.910       .  S
Fe3          O21   2.120       .  S
Fe3           O8   2.072       .  S
Fe3          O15   2.078       .  S
Fe3           O4   2.122       .  S
Fe3         O844   1.929   1_545  S
O4           C11   1.283       .  A
O5          C851   1.267       .  A
O6          C843   1.268       .  A
O7          C842   1.267       .  A
O8           C20   1.270       .  A
O9           C22   1.279       .  A
C10          O15   1.270       .  A
C10         O839   1.267       .  A
C10        C2458   1.480       .  S
C11         O838   1.268   1_545  A
C11         C804   1.470       .  S
O12        Fe835   1.929       .  S
O13          C16   1.260       .  A
O14          C16   1.266       .  A
C16         C824   1.457       .  S
O17          C22   1.273       .  A
O18         C852   1.273       .  A
C19          O21   1.282   1_565  A
C19         O837   1.267       .  A
C19        C1606   1.479       .  S
C20         O850   1.273   1_545  A
C20         C784   1.482       .  S
C22         C814   1.476       .  S
Fe23         O39   2.040       .  S
Fe23         O29   2.047       .  S
Fe23         O36   2.071       .  S
Fe23         O28   2.018       .  S
Fe23         O34   1.951       .  S
Fe24         O27   2.052       .  S
Fe24         O31   2.115       .  S
Fe24         O35   2.046       .  S
Fe24         O40   2.076       .  S
Fe24         O34   1.944       .  S
Fe25         O43   2.098       .  S
Fe25         O30   2.073       .  S
Fe25         O37   2.095       .  S
Fe25         O26   2.107       .  S
Fe25        O866   1.940   1_545  S
O26         C865   1.280   1_545  A
O27         C873   1.276       .  A
O28          C33   1.263       .  A
O29         C864   1.263       .  A
O30          C42   1.269   1_545  A
O31          C44   1.276       .  A
C32          O37   1.272       .  A
C32         O861   1.263   1_545  A
C32         C787   1.472       .  S
C33         O858   1.280       .  A
C33         C734   1.470       .  S
O34        Fe857   1.940       .  S
O35          C38   1.268       .  A
O36          C38   1.270       .  A
C38         C767   1.466       .  S
O39          C44   1.263       .  A
O40         C874   1.269       .  A
C41          O43   1.281       .  A
C41         O859   1.276   1_545  A
C41         C744   1.481       .  S
C42         O872   1.269       .  A
C42         C797   1.481   1_565  S
C44         C754   1.481       .  S
Fe45         O61   2.040       .  S
Fe45         O51   2.047       .  S
Fe45         O58   2.071       .  S
Fe45         O50   2.015       .  S
Fe45         O56   1.950       .  S
Fe46         O49   2.045       .  S
Fe46         O53   2.111       .  S
Fe46         O57   2.044       .  S
Fe46         O62   2.075       .  S
Fe46         O56   1.939       .  S
Fe47         O65   2.101       .  S
Fe47         O52   2.074       .  S
Fe47         O59   2.097       .  S
Fe47         O48   2.111       .  S
Fe47         O56   1.938       .  S
O48          C55   1.281       .  A
O49          C63   1.274       .  A
O50          C55   1.262       .  A
O51          C54   1.262       .  A
O52          C64   1.269       .  A
O53          C66   1.276       .  A
C54          O59   1.273       .  A
C54         C684   1.472       .  S
C55         C674   1.470       .  S
O57          C60   1.267       .  A
O58          C60   1.270       .  A
C60         C714   1.464       .  S
O61          C66   1.263       .  A
O62          C64   1.269       .  A
C63          O65   1.282       .  A
C63         C704   1.480       .  S
C64         C694   1.480       .  S
C66         C724   1.480       .  S
Fe67         O83   2.052       .  S
Fe67         O73   2.076       .  S
Fe67         O80   2.081       .  S
Fe67         O72   2.029       .  S
Fe67         O78   1.937       .  S
Fe68         O71   2.032       .  S
Fe68         O75   2.108       .  S
Fe68         O79   2.038       .  S
Fe68        O916   2.092   1_545  S
Fe68         O78   1.911       .  S
Fe69         O87   2.120       .  S
Fe69         O81   2.076       .  S
Fe69         O70   2.121       .  S
Fe69        O906   2.069       .  S
Fe69         O78   1.931       .  S
O70          C77   1.282       .  A
O71          C85   1.266       .  A
O72          C77   1.267       .  A
O73          C76   1.268       .  A
O74        Fe901   2.069       .  S
O74          C86   1.270       .  A
O75          C88   1.280       .  A
C76          O81   1.271       .  A
C76         C697   1.479       .  S
C77         C644   1.471       .  S
O79          C82   1.261       .  A
O80          C82   1.268       .  A
C82         C664   1.458   1_545  S
O83          C88   1.272       .  A
O84        Fe900   2.092       .  S
O84          C86   1.275       .  A
C85          O87   1.282       .  A
C85         C807   1.478       .  S
C86         C687   1.485       .  S
C88         C654   1.479       .  S
Fe89        O105   2.052       .  S
Fe89         O95   2.076       .  S
Fe89        O102   2.082       .  S
Fe89         O94   2.030       .  S
Fe89        O100   1.937       .  S
Fe90         O93   2.032       .  S
Fe90         O97   2.108       .  S
Fe90        O101   2.038       .  S
Fe90        O106   2.093       .  S
Fe90        O100   1.911       .  S
Fe91        O109   2.122       .  S
Fe91         O96   2.068       .  S
Fe91        O103   2.078       .  S
Fe91         O92   2.122       .  S
Fe91        O100   1.930       .  S
O92          C99   1.283       .  A
O93         C107   1.265       .  A
O94          C99   1.268       .  A
O95          C98   1.268       .  A
O96         C108   1.270       .  A
O97         C110   1.280       .  A
C98         O103   1.271       .  A
C98         C604   1.480       .  S
C99         C614   1.472       .  S
O101        C104   1.261       .  A
O102        C104   1.267       .  A
C104        C637   1.458       .  S
O105        C110   1.272       .  A
O106        C108   1.275       .  A
C107        O109   1.282       .  A
C107        C584   1.478       .  S
C108        C594   1.485       .  S
C110        C627   1.479       .  S
Fe111       O127   2.041       .  S
Fe111       O117   2.050       .  S
Fe111       O124   2.070       .  S
Fe111       O116   2.015       .  S
Fe111       O122   1.950       .  S
Fe112       O115   2.049       .  S
Fe112       O119   2.113       .  S
Fe112       O123   2.045       .  S
Fe112       O128   2.076       .  S
Fe112       O122   1.938       .  S
Fe113       O131   2.098       .  S
Fe113       O118   2.075       .  S
Fe113       O125   2.097       .  S
Fe113       O114   2.111       .  S
Fe113       O122   1.937       .  S
O114        C121   1.281       .  A
O115        C129   1.275       .  A
O116        C121   1.262       .  A
O117        C120   1.263       .  A
O118        C130   1.270       .  A
O119        C132   1.277       .  A
C120        O125   1.273       .  A
C120       C2261   1.473       .  S
C121        C554   1.469       .  S
O123        C126   1.267       .  A
O124        C126   1.269       .  A
C126        C574   1.465       .  S
O127        C132   1.264       .  A
O128        C130   1.270       .  A
C129        O131   1.280       .  A
C129        C677   1.480       .  S
C130        C607   1.481       .  S
C132        C564   1.481       .  S
Fe133       O149   2.049       .  S
Fe133       O139   2.077       .  S
Fe133       O146   2.085       .  S
Fe133       O138   2.029       .  S
Fe133       O144   1.935       .  S
Fe134       O137   2.033       .  S
Fe134       O141   2.109       .  S
Fe134       O145   2.037   1_556  S
Fe134       O150   2.095       .  S
Fe134       O144   1.910   1_556  S
Fe135       O153   2.121       .  S
Fe135       O140   2.067       .  S
Fe135       O147   2.074       .  S
Fe135       O136   2.120   1_556  S
Fe135       O144   1.929   1_556  S
O136        C143   1.282       .  A
O137        C151   1.265       .  A
O138        C143   1.267       .  A
O139        C142   1.269       .  A
O140        C152   1.270       .  A
O141        C154   1.280   1_556  A
C142        O147   1.271   1_554  A
C142        C504   1.478       .  S
C143        C527   1.468       .  S
O145        C148   1.261       .  A
O146        C148   1.269       .  A
C148        C534   1.459       .  S
O149        C154   1.271       .  A
O150        C152   1.275       .  A
C151        O153   1.281       .  A
C151        C617   1.478       .  S
C152        C514   1.485       .  S
C154        C544   1.478       .  S
Fe155       O171   2.042   1_554  S
Fe155       O161   2.047       .  S
Fe155       O168   2.066       .  S
Fe155       O160   2.017       .  S
Fe155       O166   1.949   1_554  S
Fe156       O159   2.051       .  S
Fe156       O163   2.113       .  S
Fe156       O167   2.047   1_556  S
Fe156      O1004   2.074   1_545  S
Fe156       O166   1.939       .  S
Fe157       O175   2.098   1_554  S
Fe157       O169   2.097   1_554  S
Fe157       O158   2.110       .  S
Fe157       O994   2.073   1_545  S
Fe157       O166   1.937   1_554  S
O158        C165   1.281       .  A
O159        C173   1.276       .  A
O160        C165   1.263       .  A
O161        C164   1.262       .  A
O162       Fe989   2.073       .  S
O162        C174   1.269       .  A
O163        C176   1.277       .  A
C164        O169   1.273   1_554  A
C164        C517   1.472   1_554  S
C165        C747   1.471       .  S
O167        C170   1.267       .  A
O168        C170   1.268       .  A
C170        C494   1.465       .  S
O171        C176   1.264       .  A
O172       Fe988   2.074       .  S
O172        C174   1.269   1_556  A
C173        O175   1.281       .  A
C173        C474   1.482       .  S
C174        C507   1.479       .  S
C176        C487   1.481       .  S
Fe177       O193   2.054       .  S
Fe177       O183   2.075       .  S
Fe177       O190   2.079       .  S
Fe177       O182   2.031       .  S
Fe177       O188   1.939       .  S
Fe178       O181   2.033       .  S
Fe178       O185   2.107       .  S
Fe178       O189   2.039       .  S
Fe178       O194   2.091       .  S
Fe178       O188   1.912       .  S
Fe179       O197   2.120       .  S
Fe179       O184   2.067       .  S
Fe179       O191   2.075       .  S
Fe179       O180   2.122       .  S
Fe179       O188   1.931       .  S
O180        C187   1.283       .  A
O181        C195   1.266       .  A
O182        C187   1.268       .  A
O183        C186   1.267       .  A
O184        C196   1.269       .  A
O185        C198   1.280       .  A
C186        O191   1.270       .  A
C186        C457   1.479       .  S
C187        C587   1.472       .  S
O189        C192   1.261       .  A
O190        C192   1.267       .  A
C192        C717   1.458       .  S
O193        C198   1.273       .  A
O194        C196   1.274       .  A
C195        O197   1.282       .  A
C195        C444   1.479       .  S
C196        C464   1.484       .  S
C198        C657   1.480       .  S
Fe199       O215   2.040       .  S
Fe199       O205   2.051       .  S
Fe199       O212   2.070       .  S
Fe199       O204   2.013       .  S
Fe199       O210   1.949       .  S
Fe200       O203   2.047       .  S
Fe200       O207   2.113       .  S
Fe200       O211   2.045       .  S
Fe200       O216   2.078       .  S
Fe200       O210   1.935       .  S
Fe201       O219   2.097       .  S
Fe201       O206   2.072       .  S
Fe201       O213   2.095       .  S
Fe201       O202   2.114       .  S
Fe201       O210   1.935       .  S
O202        C209   1.282       .  A
O203        C217   1.274       .  A
O204        C209   1.262       .  A
O205        C208   1.262       .  A
O206       C1050   1.270       .  A
O207        C220   1.278       .  A
C208        O213   1.272       .  A
C208        C467   1.471       .  S
C209        C437   1.467       .  S
O211        C214   1.266       .  A
O212        C214   1.269       .  A
C214        C667   1.465       .  S
O215        C220   1.265       .  A
O216       C1050   1.271       .  A
C217        O219   1.280       .  A
C217        C737   1.479       .  S
C218       O1038   1.270   1_545  A
C218       O1048   1.271   1_545  A
C218        C454   1.480       .  S
C220        C727   1.481       .  S
Fe221       O237   2.052       .  S
Fe221       O234   2.082       .  S
Fe221      O1059   2.076   1_545  S
Fe221      O1058   2.031   1_545  S
Fe221       O232   1.937       .  S
Fe222       O225   2.031       .  S
Fe222       O229   2.107       .  S
Fe222       O233   2.038       .  S
Fe222       O238   2.092       .  S
Fe222       O232   1.912       .  S
Fe223       O241   2.121       .  S
Fe223       O228   2.070       .  S
Fe223       O235   2.076       .  S
Fe223       O224   2.123       .  S
Fe223      O1064   1.930       .  S
O224        C231   1.283       .  A
O225       C1071   1.266       .  A
O226      Fe1053   2.031       .  S
O226        C231   1.268       .  A
O227      Fe1053   2.076       .  S
O227        C230   1.268       .  A
O228        C240   1.270       .  A
O229        C242   1.279       .  A
C230        O235   1.271       .  A
C230        C414   1.479       .  S
C231        C424   1.470       .  S
O232      Fe1055   1.930   1_545  S
O233        C236   1.261       .  A
O234        C236   1.268       .  A
C236        C577   1.459       .  S
O237        C242   1.272       .  A
O238       C1072   1.274   1_545  A
C239        O241   1.282       .  A
C239       O1057   1.266       .  A
C239        C647   1.478       .  S
C240       O1070   1.274       .  A
C240        C404   1.484       .  S
C242        C624   1.479       .  S
Fe243       O259   2.041       .  S
Fe243       O256   2.072       .  S
Fe243       O248   2.014       .  S
Fe243      O1081   2.052       .  S
Fe243       O254   1.949       .  S
Fe244       O251   2.112       .  S
Fe244       O255   2.044       .  S
Fe244       O260   2.078       .  S
Fe244      O1079   2.048       .  S
Fe244       O254   1.938       .  S
Fe245       O263   2.100       .  S
Fe245       O250   2.072       .  S
Fe245       O257   2.096       .  S
Fe245       O246   2.111       .  S
Fe245      O1086   1.937       .  S
O246        C253   1.281       .  A
O247      Fe1076   2.048       .  S
O247        C261   1.274       .  A
O248       C1085   1.262   1_545  A
O249      Fe1075   2.052       .  S
O249        C252   1.263       .  A
O250        C262   1.269       .  A
O251        C264   1.277       .  A
C252        O257   1.273       .  A
C252       C2071   1.473   1_455  S
C253       O1080   1.262       .  A
C253       C1309   1.469       .  S
O254      Fe1077   1.937   1_545  S
O255        C258   1.267       .  A
O256        C258   1.270       .  A
C258        C634   1.465       .  S
O259        C264   1.264       .  A
O260       C1094   1.270   1_545  A
C261        O263   1.281       .  A
C261        C434   1.482       .  S
C262       O1092   1.270       .  A
C262        C417   1.481       .  S
C264        C567   1.481       .  S
Fe265       O281   2.059       .  S
Fe265       O271   2.075       .  S
Fe265       O278   2.084       .  S
Fe265       O270   2.031       .  S
Fe265       O276   1.937       .  S
Fe266       O269   2.034       .  S
Fe266       O273   2.091       .  S
Fe266       O277   2.038       .  S
Fe266       O282   2.073       .  S
Fe266       O276   1.906       .  S
Fe267       O285   2.119       .  S
Fe267       O272   2.081       .  S
Fe267       O279   2.080       .  S
Fe267       O268   2.120       .  S
Fe267       O276   1.933       .  S
O268        C275   1.282       .  A
O269        C283   1.267       .  A
O270        C275   1.267       .  A
O271        C274   1.269       .  A
O272        C284   1.271       .  A
O273        C286   1.276       .  A
C274        O279   1.273       .  A
C274       C2058   1.480   1_455  S
C275        C447   1.470       .  S
O277        C280   1.262       .  A
O278        C280   1.269       .  A
C280        C764   1.457       .  S
O281        C286   1.272       .  A
O282        C284   1.272       .  A
C283        O285   1.282       .  A
C283        C524   1.480       .  S
C284        C384   1.486       .  S
C286        C817   1.477       .  S
Fe287       O303   2.042       .  S
Fe287       O293   2.044       .  S
Fe287       O300   2.057       .  S
Fe287       O292   2.005       .  S
Fe287       O298   1.936       .  S
Fe288       O291   2.047       .  S
Fe288       O295   2.123       .  S
Fe288       O299   2.054       .  S
Fe288       O304   2.083       .  S
Fe288       O298   1.923       .  S
Fe289       O307   2.100       .  S
Fe289       O294   2.076       .  S
Fe289       O301   2.116       .  S
Fe289       O290   2.129       .  S
Fe289       O298   1.931       .  S
O290        C297   1.286       .  A
O291        C305   1.273       .  A
O292        C297   1.264       .  A
O293        C296   1.258       .  A
O294        C306   1.274       .  A
O295        C308   1.282       .  A
C296        O301   1.272       .  A
C296        C387   1.482       .  S
C297        C707   1.465       .  S
O299        C302   1.266       .  A
O300        C302   1.265       .  A
C302        C827   1.465       .  S
O303        C308   1.267       .  A
O304        C306   1.274       .  A
C305        O307   1.280       .  A
C305        C374   1.484       .  S
C306        C397   1.482       .  S
C308        C757   1.483       .  S
Fe309       O325   2.042   1_554  S
Fe309       O315   2.054       .  S
Fe309       O322   2.071       .  S
Fe309       O314   2.014       .  S
Fe309       O320   1.952       .  S
Fe310       O313   2.050       .  S
Fe310       O317   2.114       .  S
Fe310       O321   2.044   1_556  S
Fe310       O326   2.077       .  S
Fe310       O320   1.939   1_556  S
Fe311       O329   2.095   1_554  S
Fe311       O316   2.066       .  S
Fe311       O323   2.093   1_554  S
Fe311       O312   2.113       .  S
Fe311       O320   1.938       .  S
O312        C319   1.281       .  A
O313        C327   1.274       .  A
O314        C319   1.262       .  A
O315        C318   1.263       .  A
O316        C328   1.268       .  A
O317        C330   1.279       .  A
C318        O323   1.271   1_554  A
C318        C354   1.472   1_554  S
C319        C377   1.466       .  S
O321        C324   1.265       .  A
O322        C324   1.268       .  A
C324        C537   1.466       .  S
O325        C330   1.266       .  A
O326        C328   1.269   1_556  A
C327        O329   1.279       .  A
C327        C557   1.481       .  S
C328        C367   1.467       .  S
C330        C484   1.482       .  S
Fe331       O347   2.050       .  S
Fe331       O337   2.060       .  S
Fe331       O344   2.074       .  S
Fe331       O336   2.028       .  S
Fe331       O342   1.937       .  S
Fe332       O335   2.032       .  S
Fe332       O339   2.111   1_556  S
Fe332       O343   2.042   1_556  S
Fe332       O348   2.088       .  S
Fe332       O342   1.910   1_556  S
Fe333       O351   2.122       .  S
Fe333       O338   2.070       .  S
Fe333       O345   2.086       .  S
Fe333       O334   2.125   1_556  S
Fe333       O342   1.932   1_556  S
O334        C341   1.284       .  A
O335        C349   1.266       .  A
O336        C341   1.269       .  A
O337        C340   1.265       .  A
O338       C1182   1.270       .  A
O339        C352   1.282       .  A
C340        O345   1.271   1_554  A
C340        C364   1.483       .  S
C341        C777   1.469       .  S
O343        C346   1.259       .  A
O344        C346   1.264       .  A
C346        C497   1.457       .  S
O347        C352   1.273       .  A
O348       C1182   1.274       .  A
C349        O351   1.282       .  A
C349        C427   1.481       .  S
C350       O1170   1.270   1_545  A
C350       O1180   1.274   1_545  A
C350        C357   1.480       .  S
C352        C547   1.478       .  S
C353        C354   1.404       .  A
C353        C358   1.401       .  A
C353        H359   1.084       .  S
C354        C355   1.404   1_556  A
C355        C356   1.403       .  A
C355        H360   1.083       .  S
C356        C357   1.406   1_554  A
C356        H361   1.083       .  S
C357        C358   1.404       .  A
C358        H362   1.083       .  S
C363        C364   1.410       .  A
C363        C368   1.395       .  A
C363        H369   1.083       .  S
C364        C365   1.406   1_554  A
C365        C366   1.404       .  A
C365        H370   1.083       .  S
C366        C367   1.405   1_556  A
C366        H371   1.083       .  S
C367        C368   1.397       .  A
C368        H372   1.084       .  S
C373        C374   1.409       .  A
C373        C378   1.397       .  A
C373        H379   1.083       .  S
C374        C375   1.406       .  A
C375        C376   1.400       .  A
C375        H380   1.083       .  S
C376        C377   1.404       .  A
C376        H381   1.083       .  S
C377        C378   1.401       .  A
C378        H382   1.084       .  S
C383        C384   1.412       .  A
C383        C388   1.416       .  A
C383        H389   1.082       .  S
C384        C385   1.401       .  A
C385        C386   1.384       .  A
C385        H390   1.084       .  S
C386        C387   1.403       .  A
C386        H391   1.080       .  S
C387        C388   1.407       .  A
C388        H392   1.083       .  S
C393        C394   1.407       .  A
C393        C398   1.402       .  A
C393        H399   1.083       .  S
C394       C1938   1.480       .  S
C394        C395   1.404       .  A
C395        C396   1.399       .  A
C395        H400   1.083       .  S
C396        C397   1.407       .  A
C396        H401   1.083       .  S
C397        C398   1.404       .  A
C398        H402   1.083       .  S
C403        C404   1.408       .  A
C403        C408   1.404       .  A
C403        H409   1.083       .  S
C404        C405   1.404       .  A
C405        C406   1.400       .  A
C405        H410   1.083       .  S
C406        C407   1.404       .  A
C406       H2075   1.084       .  S
C407       C1916   1.473       .  S
C407        C408   1.404       .  A
C408        H412   1.083       .  S
H411       C2070   1.084       .  S
C413        C414   1.407       .  A
C413        C418   1.402       .  A
C413        H419   1.083       .  S
C414        C415   1.403       .  A
C415        C416   1.399       .  A
C415        H420   1.083       .  S
C416        C417   1.407       .  A
C416        H421   1.083       .  S
C417        C418   1.404       .  A
C418        H422   1.083       .  S
C423        C424   1.399       .  A
C423        C428   1.400       .  A
C423        H429   1.083       .  S
C424        C425   1.407       .  A
C425        C426   1.401       .  A
C425        H430   1.084       .  S
C426        C427   1.402       .  A
C426        H431   1.083       .  S
C427        C428   1.411       .  A
C428        H432   1.084       .  S
C433        C434   1.409       .  A
C433        C438   1.399       .  A
C433        H439   1.083       .  S
C434        C435   1.405       .  A
C435        C436   1.399       .  A
C435        H440   1.083       .  S
C436        C437   1.405       .  A
C436        H441   1.083       .  S
C437        C438   1.401       .  A
C438        H442   1.084       .  S
C443        C444   1.410       .  A
C443        C448   1.400       .  A
C443        H449   1.084       .  S
C444        C445   1.402       .  A
C445        C446   1.400       .  A
C445        H450   1.083       .  S
C446        C447   1.407       .  A
C446        H451   1.084       .  S
C447        C448   1.399       .  A
C448        H452   1.083       .  S
C453        C454   1.407       .  A
C453        C458   1.398       .  A
C453        H459   1.083       .  S
C454        C455   1.404       .  A
C455        C456   1.402       .  A
C455        H460   1.083       .  S
C456        C457   1.407       .  A
C456        H461   1.083       .  S
C457        C458   1.403       .  A
C458        H462   1.083       .  S
C463        C464   1.404       .  A
C463        C468   1.399       .  A
C463        H469   1.083       .  S
C464        C465   1.409       .  A
C465        C466   1.404       .  A
C465        H470   1.083       .  S
C466        C467   1.403       .  A
C466        H471   1.083       .  S
C467        C468   1.404       .  A
C468        H472   1.084       .  S
C473        C474   1.404       .  A
C473        C478   1.398       .  A
C473        H479   1.083       .  S
C474        C475   1.409       .  A
C475        C476   1.400   1_545  A
C475        H480   1.082       .  S
C476        C477   1.402       .  A
C476        H481   1.084       .  S
C477       C1085   1.470       .  S
C477        C478   1.405   1_565  A
C478       H1314   1.083       .  S
H482       C1310   1.083       .  S
C483        C484   1.404       .  A
C483        C488   1.400       .  A
C483        H489   1.083       .  S
C484        C485   1.408       .  A
C485        C486   1.400       .  A
C485        H490   1.083       .  S
C486        C487   1.404       .  A
C486        H491   1.083       .  S
C487        C488   1.407       .  A
C488        H492   1.083       .  S
C493        C494   1.403       .  A
C493        C498   1.391       .  A
C493        H499   1.083       .  S
C494       C1327   1.403   1_545  A
C495        C496   1.391       .  A
C495       C1326   1.403       .  A
C495        H500   1.083       .  S
C496        C497   1.402       .  A
C496        H501   1.084       .  S
C497       C1330   1.402       .  A
C498       C1329   1.402   1_545  A
C498        H502   1.084       .  S
C503        C504   1.408       .  A
C503        C508   1.402       .  A
C503        H509   1.083       .  S
C504        C505   1.403   1_554  A
C505        C506   1.398       .  A
C505        H510   1.083       .  S
C506        C507   1.406   1_556  A
C506        H511   1.083       .  S
C507        C508   1.403       .  A
C508        H512   1.083       .  S
C513        C514   1.404       .  A
C513        C518   1.399       .  A
C513        H519   1.083       .  S
C514        C515   1.408   1_556  A
C515        C516   1.404       .  A
C515        H520   1.083       .  S
C516        C517   1.403   1_554  A
C516        H521   1.083       .  S
C517        C518   1.404       .  A
C518        H522   1.084       .  S
C523        C524   1.411       .  A
C523        C528   1.399       .  A
C523        H529   1.083       .  S
C524        C525   1.402       .  A
C525        C526   1.399       .  A
C525        H530   1.083       .  S
C526        C527   1.406       .  A
C526        H531   1.084       .  S
C527        C528   1.399       .  A
C528        H532   1.083       .  S
C533        C534   1.404       .  A
C533        C538   1.393       .  A
C533        H539   1.084       .  S
C534        C535   1.402       .  A
C535        C536   1.392       .  A
C535        H540   1.084       .  S
C536        C537   1.404       .  A
C536        H541   1.084       .  S
C537        C538   1.402       .  A
C538        H542   1.083       .  S
C543        C544   1.405       .  A
C543        C548   1.399       .  A
C543        H549   1.083       .  S
C544        C545   1.406       .  A
C545        C546   1.398       .  A
C545        H550   1.083       .  S
C546        C547   1.405       .  A
C546        H551   1.083       .  S
C547        C548   1.406       .  A
C548        H552   1.083       .  S
C553        C554   1.402       .  A
C553        C558   1.399       .  A
C553        H559   1.084       .  S
C554        C555   1.406       .  A
C555        C556   1.398       .  A
C555        H560   1.083       .  S
C556        C557   1.404       .  A
C556        H561   1.083       .  S
C557        C558   1.409       .  A
C558        H562   1.083       .  S
C563        C568   1.400       .  A
C563       C2228   1.408   1_455  A
C563        H569   1.083       .  S
C564        C565   1.404       .  A
C564       C2227   1.408       .  A
C565        C566   1.400       .  A
C565        H570   1.083       .  S
C566       C2231   1.408       .  A
C566        H571   1.083       .  S
C567        C568   1.404       .  A
C567       C2230   1.408   1_455  A
C568        H572   1.083       .  S
C573        C574   1.403       .  A
C573        C578   1.392       .  A
C573        H579   1.083       .  S
C574        C575   1.404       .  A
C575        C576   1.392       .  A
C575        H580   1.083       .  S
C576        C577   1.402       .  A
C576        H581   1.084       .  S
C577        C578   1.403       .  A
C578        H582   1.084       .  S
C583        C584   1.401       .  A
C583        C588   1.399       .  A
C583        H589   1.083       .  S
C584        C585   1.410       .  A
C585        C586   1.401       .  A
C585        H590   1.083       .  S
C586        C587   1.399       .  A
C586        H591   1.083       .  S
C587        C588   1.408       .  A
C588        H592   1.084       .  S
C593        C594   1.408       .  A
C593        C598   1.404       .  A
C593        H599   1.083       .  S
C594        C595   1.404       .  A
C595        C596   1.400       .  A
C595        H600   1.083       .  S
C596        C597   1.404       .  A
C596        H601   1.084       .  S
C597       C1784   1.473       .  S
C597        C598   1.403       .  A
C598        H602   1.083       .  S
C603        C604   1.403       .  A
C603        C608   1.398       .  A
C603        H609   1.083       .  S
C604        C605   1.408       .  A
C605        C606   1.402       .  A
C605        H610   1.083       .  S
C606        C607   1.404       .  A
C606        H611   1.083       .  S
C607        C608   1.407       .  A
C608        H612   1.083       .  S
C613        C614   1.399       .  A
C613        C618   1.401       .  A
C613        H619   1.083       .  S
C614        C615   1.407       .  A
C615        C616   1.399       .  A
C615        H620   1.084       .  S
C616        C617   1.401       .  A
C616        H621   1.083       .  S
C617        C618   1.410       .  A
C618        H622   1.083       .  S
C623        C624   1.405       .  A
C623        C628   1.399       .  A
C623        H629   1.083       .  S
C624        C625   1.405       .  A
C625        C626   1.399       .  A
C625        H630   1.083       .  S
C626        C627   1.406       .  A
C626        H631   1.083       .  S
C627        C628   1.405       .  A
C628        H632   1.083       .  S
C633        C634   1.404       .  A
C633        C638   1.392       .  A
C633        H639   1.084       .  S
C634        C635   1.402       .  A
C635        C636   1.392       .  A
C635        H640   1.083       .  S
C636        C637   1.403       .  A
C636        H641   1.084       .  S
C637        C638   1.402       .  A
C638        H642   1.084       .  S
C643        C644   1.399       .  A
C643        C648   1.400       .  A
C643        H649   1.083       .  S
C644        C645   1.407   1_545  A
C645        C646   1.399       .  A
C645        H650   1.084       .  S
C646       C1479   1.401   1_565  A
C646        H651   1.083       .  S
C647       C1478   1.401       .  A
C647       C1480   1.410       .  A
C648       C1479   1.410       .  A
C648        H652   1.083       .  S
C653        C654   1.405       .  A
C653       C2322   1.399       .  A
C653        H659   1.083       .  S
C654       C2319   1.406       .  A
C655        C656   1.399       .  A
C655       C2318   1.406   1_455  A
C655        H660   1.083       .  S
C656        C657   1.405       .  A
C656        H661   1.083       .  S
C657        C658   1.406       .  A
C658       C2317   1.399   1_455  A
C658        H662   1.083       .  S
C663       C1496   1.403       .  A
C663       C2332   1.392       .  A
C663        H669   1.084       .  S
C664       C1495   1.403       .  A
C664       C2329   1.402   1_565  A
C665        C666   1.392       .  A
C665       C2328   1.402   1_445  A
C665       H2334   1.084       .  S
C666       C1499   1.404   1_545  A
C666        H671   1.084       .  S
C667        C668   1.402       .  A
C667       C1498   1.404       .  A
C668       C2327   1.392   1_455  A
C668        H672   1.083       .  S
H670       C2329   1.084       .  S
C673        C674   1.402       .  A
C673        C678   1.399       .  A
C673        H679   1.084       .  S
C674        C675   1.406       .  A
C675        C676   1.398       .  A
C675        H680   1.083       .  S
C676        C677   1.404       .  A
C676        H681   1.083       .  S
C677        C678   1.408       .  A
C678        H682   1.083       .  S
C683        C684   1.404       .  A
C683        C688   1.400       .  A
C683        H689   1.084       .  S
C684        C685   1.403       .  A
C685        C686   1.405       .  A
C685        H690   1.083       .  S
C686        C687   1.408       .  A
C686        H691   1.083       .  S
C687        C688   1.404       .  A
C688        H692   1.083       .  S
C693        C694   1.404       .  A
C693        C698   1.402       .  A
C693        H699   1.083       .  S
C694        C695   1.407       .  A
C695        C696   1.398       .  A
C695        H700   1.083       .  S
C696        C697   1.403       .  A
C696        H701   1.083       .  S
C697        C698   1.408       .  A
C698        H702   1.083       .  S
C703        C704   1.409       .  A
C703        C708   1.399       .  A
C703        H709   1.083       .  S
C704        C705   1.403       .  A
C705        C706   1.397       .  A
C705        H710   1.083       .  S
C706        C707   1.405       .  A
C706        H711   1.083       .  S
C707        C708   1.400       .  A
C708        H712   1.084       .  S
C713        C714   1.404       .  A
C713       C2382   1.392       .  A
C713        H719   1.084       .  S
C714       C2379   1.402       .  A
C715        C716   1.392       .  A
C715       C2378   1.402   1_455  A
C715        H720   1.083       .  S
C716        C717   1.403       .  A
C716        H721   1.084       .  S
C717        C718   1.402       .  A
C718       C2377   1.392   1_455  A
C718        H722   1.084       .  S
C723        C728   1.399       .  A
C723       C2388   1.404   1_455  A
C723        H729   1.083       .  S
C724        C725   1.407       .  A
C724       C2387   1.404       .  A
C725       C2390   1.399       .  A
C725        H730   1.083       .  S
C726        C727   1.404       .  A
C726       C2389   1.399   1_455  A
C726        H731   1.083       .  S
C727        C728   1.408       .  A
C728        H732   1.083       .  S
C733        C734   1.401       .  A
C733        C738   1.398       .  A
C733       H1571   1.084       .  S
C734        C735   1.406       .  A
C735        C736   1.398       .  A
C735        H740   1.083       .  S
C736        C737   1.403       .  A
C736        H741   1.083       .  S
C737        C738   1.408       .  A
C738        H742   1.083       .  S
H739       C1565   1.084   1_545  S
C743        C744   1.404       .  A
C743        C748   1.398       .  A
C743        H749   1.083       .  S
C744       C1577   1.408   1_545  A
C745       C1576   1.408       .  A
C745       C1578   1.400       .  A
C745        H750   1.083       .  S
C746        C747   1.402       .  A
C746       C1577   1.400   1_545  A
C746       H1583   1.084   1_545  S
C747        C748   1.406       .  A
C748        H752   1.083       .  S
H751       C1578   1.084       .  S
C753        C754   1.404       .  A
C753        C758   1.401       .  A
C753        H759   1.083       .  S
C754        C755   1.408       .  A
C755        C756   1.400       .  A
C755        H760   1.083       .  S
C756        C757   1.404       .  A
C756        H761   1.083       .  S
C757        C758   1.409       .  A
C758        H762   1.083       .  S
C763        C764   1.403       .  A
C763        C768   1.392       .  A
C763        H769   1.084       .  S
C764        C765   1.402       .  A
C765        C766   1.392       .  A
C765        H770   1.084       .  S
C766        C767   1.404       .  A
C766        H771   1.084       .  S
C767        C768   1.403       .  A
C768        H772   1.083       .  S
C773       C1606   1.402       .  A
C773       C1610   1.400       .  A
C773        H779   1.083   1_565  S
C774        C851   1.479       .  S
C774        C775   1.410       .  A
C774       C1605   1.402       .  A
C775        C776   1.399       .  A
C775        H780   1.083       .  S
C776        C777   1.399       .  A
C776        H781   1.083       .  S
C777        C778   1.407       .  A
C778       C1605   1.400       .  A
C778       H1614   1.084       .  S
H782       C1610   1.084   1_545  S
C783        C784   1.407       .  A
C783        C788   1.404       .  A
C783        H789   1.083       .  S
C784        C785   1.404       .  A
C785        C786   1.399       .  A
C785        H790   1.083   1_545  S
C786        C787   1.404       .  A
C786        H791   1.084   1_545  S
C787        C788   1.404       .  A
C788        H792   1.083       .  S
C793        C798   1.399       .  A
C793       C1626   1.404       .  A
C793        H799   1.083       .  S
C794       C1674   1.480   1_455  S
C794        C795   1.407       .  A
C794       C1625   1.404       .  A
C795        C796   1.402       .  A
C795        H800   1.083       .  S
C796        C797   1.404       .  A
C796        H801   1.083       .  S
C797       C1630   1.407   1_545  A
C798       C1629   1.407       .  A
C798        H802   1.083       .  S
C803       C1636   1.407       .  A
C803       C1640   1.399       .  A
C803        H809   1.084       .  S
C804        C805   1.398       .  A
C804       C1635   1.407       .  A
C805        C806   1.400       .  A
C805        H810   1.083       .  S
C806        C807   1.410       .  A
C806        H811   1.083       .  S
C807        C808   1.401       .  A
C808       C1635   1.399       .  A
C808       H1644   1.083       .  S
H812       C1640   1.083       .  S
C813        C818   1.396       .  A
C813       C2478   1.403   1_455  A
C813        H819   1.083       .  S
C814        C815   1.407       .  A
C814       C2477   1.403       .  A
C815        C816   1.399       .  A
C815        H820   1.083       .  S
C816       C2481   1.404       .  A
C816        H821   1.083       .  S
C817        C818   1.406       .  A
C817       C2480   1.404   1_455  A
C818        H822   1.083       .  S
C823        C824   1.403       .  A
C823        C828   1.392       .  A
C823        H829   1.084       .  S
C824        C825   1.401       .  A
C825        C826   1.391       .  A
C825        H830   1.084       .  S
C826        C827   1.404       .  A
C826        H831   1.083       .  S
C827        C828   1.403       .  A
C828        H832   1.083       .  S
Fe833       O849   2.051       .  S
Fe833       O839   2.074   1_565  S
Fe833       O846   2.079       .  S
Fe833       O838   2.027       .  S
Fe833       O844   1.940       .  S
Fe834       O837   2.033       .  S
Fe834       O841   2.104       .  S
Fe834       O845   2.039       .  S
Fe834       O850   2.086       .  S
Fe834       O844   1.910       .  S
Fe835       O853   2.120       .  S
Fe835       O840   2.072       .  S
Fe835       O847   2.078       .  S
Fe835       O836   2.122       .  S
O836        C843   1.283       .  A
O840        C852   1.270       .  A
O841        C854   1.279       .  A
C842        O847   1.270       .  A
C842       C3290   1.480       .  S
C843       C1636   1.470       .  S
O845        C848   1.260       .  A
O846        C848   1.266       .  A
C848       C1656   1.457       .  S
O849        C854   1.273       .  A
C851        O853   1.282       .  A
C852       C1616   1.482       .  S
C854       C1646   1.476       .  S
Fe855       O871   2.040       .  S
Fe855       O861   2.047       .  S
Fe855       O868   2.071       .  S
Fe855       O860   2.018       .  S
Fe855       O866   1.951       .  S
Fe856       O859   2.052       .  S
Fe856       O863   2.115       .  S
Fe856       O867   2.046       .  S
Fe856       O872   2.076       .  S
Fe856       O866   1.944       .  S
Fe857       O875   2.098       .  S
Fe857       O862   2.073       .  S
Fe857       O869   2.095       .  S
Fe857       O858   2.107       .  S
O860        C865   1.263       .  A
O862        C874   1.269       .  A
O863        C876   1.276       .  A
C864        O869   1.272       .  A
C864       C1619   1.472       .  S
C865       C1566   1.470       .  S
O867        C870   1.268       .  A
O868        C870   1.270       .  A
C870       C1599   1.466       .  S
O871        C876   1.263       .  A
C873        O875   1.281       .  A
C873       C1576   1.481       .  S
C874       C1629   1.481       .  S
C876       C1586   1.481       .  S
Fe877       O893   2.040       .  S
Fe877       O883   2.047       .  S
Fe877       O890   2.071       .  S
Fe877       O882   2.015       .  S
Fe877       O888   1.950       .  S
Fe878       O881   2.045       .  S
Fe878       O885   2.110       .  S
Fe878       O889   2.044       .  S
Fe878       O894   2.075       .  S
Fe878       O888   1.939       .  S
Fe879       O897   2.101       .  S
Fe879       O884   2.074       .  S
Fe879       O891   2.097       .  S
Fe879       O880   2.111       .  S
Fe879       O888   1.938       .  S
O880        C887   1.281       .  A
O881        C895   1.274       .  A
O882        C887   1.262       .  A
O883        C886   1.262       .  A
O884        C896   1.269       .  A
O885        C898   1.276       .  A
C886        O891   1.273       .  A
C886       C1516   1.472       .  S
C887       C1506   1.470       .  S
O889        C892   1.267       .  A
O890        C892   1.270       .  A
C892       C1546   1.464       .  S
O893        C898   1.263       .  A
O894        C896   1.269       .  A
C895        O897   1.282       .  A
C895       C1536   1.480       .  S
C896       C1526   1.480       .  S
C898       C1556   1.480       .  S
Fe899       O915   2.052       .  S
Fe899       O905   2.076       .  S
Fe899       O912   2.081       .  S
Fe899       O904   2.029       .  S
Fe899       O910   1.937       .  S
Fe900       O903   2.032       .  S
Fe900       O907   2.108       .  S
Fe900       O911   2.038       .  S
Fe900       O910   1.911       .  S
Fe901       O919   2.120       .  S
Fe901       O913   2.076       .  S
Fe901       O902   2.121       .  S
Fe901       O910   1.931       .  S
O902        C909   1.282       .  A
O903        C917   1.266       .  A
O904        C909   1.267       .  A
O905        C908   1.268       .  A
O906        C918   1.270   1_545  A
O907        C920   1.280       .  A
C908        O913   1.271       .  A
C908       C1529   1.479       .  S
C909       C1476   1.471       .  S
O911        C914   1.261       .  A
O912        C914   1.268       .  A
C914       C1496   1.458       .  S
O915        C920   1.272       .  A
O916        C918   1.275       .  A
C917        O919   1.282       .  A
C917       C1639   1.478       .  S
C918       C1519   1.485       .  S
C920       C1486   1.479       .  S
Fe921       O937   2.052       .  S
Fe921       O927   2.076       .  S
Fe921       O934   2.082       .  S
Fe921       O926   2.030       .  S
Fe921       O932   1.937       .  S
Fe922       O925   2.032       .  S
Fe922       O929   2.108       .  S
Fe922       O933   2.038       .  S
Fe922       O938   2.093       .  S
Fe922       O932   1.911       .  S
Fe923       O941   2.122       .  S
Fe923       O928   2.068       .  S
Fe923       O935   2.078       .  S
Fe923       O924   2.122       .  S
Fe923       O932   1.930       .  S
O924        C931   1.283       .  A
O925        C939   1.265       .  A
O926        C931   1.268       .  A
O927        C930   1.268       .  A
O928        C940   1.270       .  A
O929        C942   1.280       .  A
C930        O935   1.271       .  A
C930       C1436   1.480       .  S
C931       C1446   1.472       .  S
O933        C936   1.261       .  A
O934        C936   1.267       .  A
C936       C1469   1.458       .  S
O937        C942   1.272       .  A
O938        C940   1.275       .  A
C939        O941   1.282       .  A
C939       C1416   1.478       .  S
C940       C1426   1.485       .  S
C942       C1459   1.479       .  S
Fe943       O959   2.041       .  S
Fe943       O949   2.050       .  S
Fe943       O956   2.070       .  S
Fe943       O948   2.015       .  S
Fe943       O954   1.950       .  S
Fe944       O947   2.049       .  S
Fe944       O951   2.113       .  S
Fe944       O955   2.045       .  S
Fe944       O960   2.076       .  S
Fe944       O954   1.938       .  S
Fe945       O963   2.098       .  S
Fe945       O950   2.075       .  S
Fe945       O957   2.097       .  S
Fe945       O946   2.111       .  S
Fe945       O954   1.937       .  S
O946        C953   1.281       .  A
O947        C961   1.275       .  A
O948        C953   1.262       .  A
O949        C952   1.263       .  A
O950        C962   1.270       .  A
O951        C964   1.277       .  A
C952        O957   1.273       .  A
C952       C3093   1.473       .  S
C953       C1386   1.469       .  S
O955        C958   1.267       .  A
O956        C958   1.269       .  A
C958       C1406   1.465       .  S
O959        C964   1.264       .  A
O960        C962   1.270       .  A
C961        O963   1.280       .  A
C961       C1509   1.480       .  S
C962       C1439   1.481       .  S
C964       C1396   1.481       .  S
Fe965       O981   2.049       .  S
Fe965       O971   2.077       .  S
Fe965       O978   2.085       .  S
Fe965       O970   2.029       .  S
Fe965       O976   1.935       .  S
Fe966       O969   2.033       .  S
Fe966       O973   2.109       .  S
Fe966       O977   2.037   1_556  S
Fe966       O982   2.095       .  S
Fe966       O976   1.910   1_556  S
Fe967       O985   2.121       .  S
Fe967       O972   2.067       .  S
Fe967       O979   2.074       .  S
Fe967       O968   2.120   1_556  S
Fe967       O976   1.929   1_556  S
O968        C975   1.282       .  A
O969        C983   1.265       .  A
O970        C975   1.267       .  A
O971        C974   1.269       .  A
O972        C984   1.270       .  A
O973        C986   1.280   1_556  A
C974        O979   1.271   1_554  A
C974       C1336   1.478       .  S
C975       C1359   1.468       .  S
O977        C980   1.261       .  A
O978        C980   1.269       .  A
C980       C1366   1.459       .  S
O981        C986   1.271       .  A
O982        C984   1.275       .  A
C983        O985   1.281       .  A
C983       C1449   1.478       .  S
C984       C1346   1.485       .  S
C986       C1376   1.478       .  S
Fe987      O1003   2.042   1_554  S
Fe987       O993   2.047       .  S
Fe987      O1000   2.066       .  S
Fe987       O992   2.017       .  S
Fe987       O998   1.949   1_554  S
Fe988       O991   2.051       .  S
Fe988       O995   2.113       .  S
Fe988       O999   2.047   1_556  S
Fe988       O998   1.939       .  S
Fe989      O1007   2.098   1_554  S
Fe989      O1001   2.097   1_554  S
Fe989       O990   2.110       .  S
Fe989       O998   1.937   1_554  S
O990        C997   1.281       .  A
O991       C1005   1.276       .  A
O992        C997   1.263       .  A
O993        C996   1.262       .  A
O994       C1006   1.269       .  A
O995       C1008   1.277       .  A
C996       O1001   1.273   1_554  A
C996       C1349   1.472   1_554  S
C997       C1579   1.471       .  S
O999       C1002   1.267       .  A
O1000      C1002   1.268       .  A
C1002      C1326   1.465       .  S
O1003      C1008   1.264       .  A
O1004      C1006   1.269   1_556  A
C1005      O1007   1.281       .  A
C1005      C1306   1.482       .  S
C1006      C1339   1.479       .  S
C1008      C1319   1.481       .  S
Fe1009     O1025   2.054       .  S
Fe1009     O1015   2.075       .  S
Fe1009     O1022   2.079       .  S
Fe1009     O1014   2.031       .  S
Fe1009     O1020   1.939       .  S
Fe1010     O1013   2.033       .  S
Fe1010     O1017   2.107       .  S
Fe1010     O1021   2.039       .  S
Fe1010     O1026   2.091       .  S
Fe1010     O1020   1.912       .  S
Fe1011     O1029   2.120       .  S
Fe1011     O1016   2.067       .  S
Fe1011     O1023   2.075       .  S
Fe1011     O1012   2.122       .  S
Fe1011     O1020   1.931       .  S
O1012      C1019   1.283       .  A
O1013      C1027   1.266       .  A
O1014      C1019   1.268       .  A
O1015      C1018   1.267       .  A
O1016      C1028   1.269       .  A
O1017      C1030   1.280       .  A
C1018      O1023   1.270       .  A
C1018      C1289   1.479       .  S
C1019      C1419   1.472       .  S
O1021      C1024   1.261       .  A
O1022      C1024   1.267       .  A
C1024      C1549   1.458       .  S
O1025      C1030   1.273       .  A
O1026      C1028   1.274       .  A
C1027      O1029   1.282       .  A
C1027      C1276   1.479       .  S
C1028      C1296   1.484       .  S
C1030      C1489   1.480       .  S
Fe1031     O1047   2.040       .  S
Fe1031     O1037   2.051       .  S
Fe1031     O1044   2.070       .  S
Fe1031     O1036   2.013       .  S
Fe1031     O1042   1.949       .  S
Fe1032     O1035   2.047       .  S
Fe1032     O1039   2.113       .  S
Fe1032     O1043   2.045       .  S
Fe1032     O1048   2.078       .  S
Fe1032     O1042   1.935       .  S
Fe1033     O1051   2.098       .  S
Fe1033     O1038   2.072       .  S
Fe1033     O1045   2.095       .  S
Fe1033     O1034   2.114       .  S
Fe1033     O1042   1.935       .  S
O1034      C1041   1.282       .  A
O1035      C1049   1.274       .  A
O1036      C1041   1.262       .  A
O1037      C1040   1.262       .  A
O1039      C1052   1.278       .  A
C1040      O1045   1.272       .  A
C1040      C1299   1.471       .  S
C1041      C1269   1.467       .  S
O1043      C1046   1.266       .  A
O1044      C1046   1.269       .  A
C1046      C1499   1.465       .  S
O1047      C1052   1.265       .  A
C1049      O1051   1.280       .  A
C1049      C1569   1.479       .  S
C1050      C1286   1.480       .  S
C1052      C1559   1.481       .  S
Fe1053     O1069   2.052       .  S
Fe1053     O1066   2.082       .  S
Fe1053     O1064   1.937       .  S
Fe1054     O1057   2.031       .  S
Fe1054     O1061   2.107       .  S
Fe1054     O1065   2.038       .  S
Fe1054     O1070   2.092       .  S
Fe1054     O1064   1.912       .  S
Fe1055     O1073   2.121       .  S
Fe1055     O1060   2.070       .  S
Fe1055     O1067   2.076       .  S
Fe1055     O1056   2.123       .  S
O1056      C1063   1.283       .  A
O1058      C1063   1.268       .  A
O1059      C1062   1.268       .  A
O1060      C1072   1.270       .  A
O1061      C1074   1.279       .  A
C1062      O1067   1.271       .  A
C1062      C1246   1.479       .  S
C1063      C1256   1.470       .  S
O1065      C1068   1.261       .  A
O1066      C1068   1.268       .  A
C1068      C1409   1.459       .  S
O1069      C1074   1.272       .  A
C1071      O1073   1.282   1_545  A
C1071      C1479   1.478       .  S
C1072      C1236   1.484       .  S
C1074      C1456   1.479       .  S
Fe1075     O1091   2.041       .  S
Fe1075     O1088   2.072       .  S
Fe1075     O1080   2.014       .  S
Fe1075     O1086   1.949       .  S
Fe1076     O1083   2.112       .  S
Fe1076     O1087   2.044       .  S
Fe1076     O1092   2.078       .  S
Fe1076     O1086   1.938       .  S
Fe1077     O1095   2.100       .  S
Fe1077     O1082   2.072       .  S
Fe1077     O1089   2.096       .  S
Fe1077     O1078   2.111       .  S
O1078      C1085   1.281       .  A
O1079      C1093   1.274   1_545  A
O1081      C1084   1.263   1_545  A
O1082      C1094   1.269       .  A
O1083      C1096   1.277       .  A
C1084      O1089   1.273       .  A
C1084      C2903   1.473   1_455  S
O1087      C1090   1.267       .  A
O1088      C1090   1.270       .  A
C1090      C1466   1.465       .  S
O1091      C1096   1.264       .  A
C1093      O1095   1.281       .  A
C1093      C1266   1.482       .  S
C1094      C1249   1.481       .  S
C1096      C1399   1.481       .  S
Fe1097     O1113   2.059       .  S
Fe1097     O1103   2.075       .  S
Fe1097     O1110   2.084       .  S
Fe1097     O1102   2.031       .  S
Fe1097     O1108   1.937       .  S
Fe1098     O1101   2.034       .  S
Fe1098     O1105   2.091       .  S
Fe1098     O1109   2.038       .  S
Fe1098     O1114   2.073       .  S
Fe1098     O1108   1.906       .  S
Fe1099     O1117   2.119       .  S
Fe1099     O1104   2.081       .  S
Fe1099     O1111   2.080       .  S
Fe1099     O1100   2.120       .  S
Fe1099     O1108   1.933       .  S
O1100      C1107   1.282       .  A
O1101      C1115   1.267       .  A
O1102      C1107   1.267       .  A
O1103      C1106   1.269       .  A
O1104      C1116   1.271       .  A
O1105      C1118   1.276       .  A
C1106      O1111   1.273       .  A
C1106      C2890   1.480   1_455  S
C1107      C1279   1.470       .  S
O1109      C1112   1.262       .  A
O1110      C1112   1.269       .  A
C1112      C1596   1.457       .  S
O1113      C1118   1.272       .  A
O1114      C1116   1.272       .  A
C1115      O1117   1.282       .  A
C1115      C1356   1.480       .  S
C1116      C1216   1.486       .  S
C1118      C1649   1.477       .  S
Fe1119     O1135   2.042       .  S
Fe1119     O1125   2.044       .  S
Fe1119     O1132   2.057       .  S
Fe1119     O1124   2.005       .  S
Fe1119     O1130   1.936       .  S
Fe1120     O1123   2.047       .  S
Fe1120     O1127   2.123       .  S
Fe1120     O1131   2.054       .  S
Fe1120     O1136   2.083       .  S
Fe1120     O1130   1.923       .  S
Fe1121     O1139   2.100       .  S
Fe1121     O1126   2.076       .  S
Fe1121     O1133   2.116       .  S
Fe1121     O1122   2.129       .  S
Fe1121     O1130   1.931       .  S
O1122      C1129   1.286       .  A
O1123      C1137   1.273       .  A
O1124      C1129   1.264       .  A
O1125      C1128   1.258       .  A
O1126      C1138   1.274       .  A
O1127      C1140   1.282       .  A
C1128      O1133   1.272       .  A
C1128      C1219   1.482       .  S
C1129      C1539   1.465       .  S
O1131      C1134   1.266       .  A
O1132      C1134   1.265       .  A
C1134      C1659   1.465       .  S
O1135      C1140   1.267       .  A
O1136      C1138   1.274       .  A
C1137      O1139   1.280       .  A
C1137      C1206   1.484       .  S
C1138      C1229   1.482       .  S
C1140      C1589   1.483       .  S
Fe1141     O1157   2.042   1_554  S
Fe1141     O1147   2.054       .  S
Fe1141     O1154   2.071       .  S
Fe1141     O1146   2.014       .  S
Fe1141     O1152   1.952       .  S
Fe1142     O1145   2.050       .  S
Fe1142     O1149   2.114       .  S
Fe1142     O1153   2.044   1_556  S
Fe1142     O1158   2.077       .  S
Fe1142     O1152   1.938   1_556  S
Fe1143     O1161   2.095   1_554  S
Fe1143     O1148   2.066       .  S
Fe1143     O1155   2.093   1_554  S
Fe1143     O1144   2.113       .  S
Fe1143     O1152   1.938       .  S
O1144      C1151   1.281       .  A
O1145      C1159   1.274       .  A
O1146      C1151   1.262       .  A
O1147      C1150   1.263       .  A
O1148      C1160   1.268       .  A
O1149      C1162   1.279       .  A
C1150      O1155   1.271   1_554  A
C1150      C1186   1.472   1_554  S
C1151      C1209   1.466       .  S
O1153      C1156   1.265       .  A
O1154      C1156   1.268       .  A
C1156      C1369   1.466       .  S
O1157      C1162   1.266       .  A
O1158      C1160   1.269   1_556  A
C1159      O1161   1.279       .  A
C1159      C1389   1.481       .  S
C1160      C1199   1.467       .  S
C1162      C1316   1.482       .  S
Fe1163     O1179   2.050       .  S
Fe1163     O1169   2.060       .  S
Fe1163     O1176   2.074       .  S
Fe1163     O1168   2.028       .  S
Fe1163     O1174   1.937       .  S
Fe1164     O1167   2.032       .  S
Fe1164     O1171   2.111   1_556  S
Fe1164     O1175   2.042   1_556  S
Fe1164     O1180   2.088       .  S
Fe1164     O1174   1.910   1_556  S
Fe1165     O1183   2.122       .  S
Fe1165     O1170   2.070       .  S
Fe1165     O1177   2.086       .  S
Fe1165     O1166   2.125   1_556  S
Fe1165     O1174   1.932   1_556  S
O1166      C1173   1.284       .  A
O1167      C1181   1.266       .  A
O1168      C1173   1.269       .  A
O1169      C1172   1.265       .  A
O1171      C1184   1.282       .  A
C1172      O1177   1.271   1_554  A
C1172      C1196   1.483       .  S
C1173      C1609   1.469       .  S
O1175      C1178   1.259       .  A
O1176      C1178   1.264       .  A
C1178      C1329   1.457       .  S
O1179      C1184   1.273       .  A
C1181      O1183   1.282       .  A
C1181      C1259   1.481       .  S
C1182      C1189   1.480       .  S
C1184      C1379   1.478       .  S
C1185      C1186   1.404       .  A
C1185      C1190   1.401       .  A
C1185      H1191   1.084       .  S
C1186      C1187   1.404   1_556  A
C1187      C1188   1.403       .  A
C1187      H1192   1.083       .  S
C1188      C1189   1.406   1_554  A
C1188      H1193   1.083       .  S
C1189      C1190   1.404       .  A
C1190      H1194   1.083       .  S
C1195      C1196   1.410       .  A
C1195      C1200   1.395       .  A
C1195      H1201   1.083       .  S
C1196      C1197   1.406   1_554  A
C1197      C1198   1.404       .  A
C1197      H1202   1.083       .  S
C1198      C1199   1.405   1_556  A
C1198      H1203   1.083       .  S
C1199      C1200   1.397       .  A
C1200      H1204   1.084       .  S
C1205      C1206   1.409       .  A
C1205      C1210   1.397       .  A
C1205      H1211   1.083       .  S
C1206      C1207   1.406       .  A
C1207      C1208   1.400       .  A
C1207      H1212   1.083       .  S
C1208      C1209   1.404       .  A
C1208      H1213   1.083       .  S
C1209      C1210   1.401       .  A
C1210      H1214   1.084       .  S
C1215      C1216   1.412       .  A
C1215      C1220   1.416       .  A
C1215      H1221   1.082       .  S
C1216      C1217   1.401       .  A
C1217      C1218   1.384       .  A
C1217      H1222   1.084       .  S
C1218      C1219   1.403       .  A
C1218      H1223   1.080       .  S
C1219      C1220   1.407       .  A
C1220      H1224   1.083       .  S
C1225      C1226   1.407       .  A
C1225      C1230   1.402       .  A
C1225      H1231   1.083       .  S
C1226      C2770   1.480       .  S
C1226      C1227   1.404       .  A
C1227      C1228   1.399       .  A
C1227      H1232   1.083       .  S
C1228      C1229   1.407       .  A
C1228      H1233   1.083       .  S
C1229      C1230   1.404       .  A
C1230      H1234   1.083       .  S
C1235      C1236   1.408       .  A
C1235      C1240   1.404       .  A
C1235      H1241   1.083       .  S
C1236      C1237   1.404       .  A
C1237      C1238   1.400       .  A
C1237      H1242   1.083       .  S
C1238      C1239   1.404       .  A
C1238      H2907   1.084       .  S
C1239      C2748   1.473       .  S
C1239      C1240   1.404       .  A
C1240      H1244   1.083       .  S
H1243      C2902   1.084       .  S
C1245      C1246   1.407       .  A
C1245      C1250   1.402       .  A
C1245      H1251   1.083       .  S
C1246      C1247   1.403       .  A
C1247      C1248   1.399       .  A
C1247      H1252   1.083       .  S
C1248      C1249   1.407       .  A
C1248      H1253   1.083       .  S
C1249      C1250   1.404       .  A
C1250      H1254   1.083       .  S
C1255      C1256   1.399       .  A
C1255      C1260   1.400       .  A
C1255      H1261   1.083       .  S
C1256      C1257   1.407       .  A
C1257      C1258   1.401       .  A
C1257      H1262   1.084       .  S
C1258      C1259   1.402       .  A
C1258      H1263   1.083       .  S
C1259      C1260   1.411       .  A
C1260      H1264   1.084       .  S
C1265      C1266   1.409       .  A
C1265      C1270   1.399       .  A
C1265      H1271   1.083   1_565  S
C1266      C1267   1.405       .  A
C1267      C1268   1.399       .  A
C1267      H1272   1.083       .  S
C1268      C1269   1.405       .  A
C1268      H1273   1.083       .  S
C1269      C1270   1.401       .  A
C1270      H1274   1.084       .  S
C1275      C1276   1.410       .  A
C1275      C1280   1.400       .  A
C1275      H1281   1.084       .  S
C1276      C1277   1.402       .  A
C1277      C1278   1.400       .  A
C1277      H1282   1.083       .  S
C1278      C1279   1.407       .  A
C1278      H1283   1.084       .  S
C1279      C1280   1.399       .  A
C1280      H1284   1.083       .  S
C1285      C1286   1.407       .  A
C1285      C1290   1.398       .  A
C1285      H1291   1.083       .  S
C1286      C1287   1.404       .  A
C1287      C1288   1.402       .  A
C1287      H1292   1.083       .  S
C1288      C1289   1.407       .  A
C1288      H1293   1.083       .  S
C1289      C1290   1.403       .  A
C1290      H1294   1.083       .  S
C1295      C1296   1.404       .  A
C1295      C1300   1.399       .  A
C1295      H1301   1.083       .  S
C1296      C1297   1.409       .  A
C1297      C1298   1.404       .  A
C1297      H1302   1.083       .  S
C1298      C1299   1.403       .  A
C1298      H1303   1.083       .  S
C1299      C1300   1.404       .  A
C1300      H1304   1.084       .  S
C1305      C1306   1.404       .  A
C1305      C1310   1.398       .  A
C1305      H1311   1.083       .  S
C1306      C1307   1.409       .  A
C1307      C1308   1.400       .  A
C1307      H1312   1.083       .  S
C1308      C1309   1.402       .  A
C1308      H1313   1.084       .  S
C1309      C1310   1.405       .  A
C1315      C1316   1.404       .  A
C1315      C1320   1.400       .  A
C1315      H1321   1.083       .  S
C1316      C1317   1.408       .  A
C1317      C1318   1.400       .  A
C1317      H1322   1.083       .  S
C1318      C1319   1.404       .  A
C1318      H1323   1.083       .  S
C1319      C1320   1.407       .  A
C1320      H1324   1.083       .  S
C1325      C1326   1.403       .  A
C1325      C1330   1.391       .  A
C1325      H1331   1.083       .  S
C1327      C1328   1.391       .  A
C1327      H1332   1.083       .  S
C1328      C1329   1.402       .  A
C1328      H1333   1.084       .  S
C1330      H1334   1.084       .  S
C1335      C1336   1.408       .  A
C1335      C1340   1.402       .  A
C1335      H1341   1.083       .  S
C1336      C1337   1.403   1_554  A
C1337      C1338   1.398       .  A
C1337      H1342   1.083       .  S
C1338      C1339   1.406   1_556  A
C1338      H1343   1.083       .  S
C1339      C1340   1.403       .  A
C1340      H1344   1.083       .  S
C1345      C1346   1.404       .  A
C1345      C1350   1.399       .  A
C1345      H1351   1.083       .  S
C1346      C1347   1.408   1_556  A
C1347      C1348   1.404       .  A
C1347      H1352   1.083       .  S
C1348      C1349   1.403   1_554  A
C1348      H1353   1.083       .  S
C1349      C1350   1.404       .  A
C1350      H1354   1.084       .  S
C1355      C1356   1.411       .  A
C1355      C1360   1.399       .  A
C1355      H1361   1.083       .  S
C1356      C1357   1.402       .  A
C1357      C1358   1.399       .  A
C1357      H1362   1.083       .  S
C1358      C1359   1.406       .  A
C1358      H1363   1.084       .  S
C1359      C1360   1.399       .  A
C1360      H1364   1.083       .  S
C1365      C1366   1.404       .  A
C1365      C1370   1.393       .  A
C1365      H1371   1.084       .  S
C1366      C1367   1.402       .  A
C1367      C1368   1.392       .  A
C1367      H1372   1.084       .  S
C1368      C1369   1.404       .  A
C1368      H1373   1.084       .  S
C1369      C1370   1.402       .  A
C1370      H1374   1.083       .  S
C1375      C1376   1.405       .  A
C1375      C1380   1.399       .  A
C1375      H1381   1.083       .  S
C1376      C1377   1.406       .  A
C1377      C1378   1.398       .  A
C1377      H1382   1.083       .  S
C1378      C1379   1.405       .  A
C1378      H1383   1.083       .  S
C1379      C1380   1.406       .  A
C1380      H1384   1.083       .  S
C1385      C1386   1.402       .  A
C1385      C1390   1.399       .  A
C1385      H1391   1.084       .  S
C1386      C1387   1.406       .  A
C1387      C1388   1.398       .  A
C1387      H1392   1.083       .  S
C1388      C1389   1.404       .  A
C1388      H1393   1.083       .  S
C1389      C1390   1.409       .  A
C1390      H1394   1.083       .  S
C1395      C3060   1.408   1_455  A
C1395      C1400   1.400       .  A
C1395      H1401   1.083       .  S
C1396      C3059   1.408       .  A
C1396      C1397   1.404       .  A
C1397      C1398   1.400       .  A
C1397      H1402   1.083       .  S
C1398      C3063   1.408       .  A
C1398      H1403   1.083       .  S
C1399      C3062   1.408   1_455  A
C1399      C1400   1.404       .  A
C1400      H1404   1.083       .  S
C1405      C1406   1.403       .  A
C1405      C1410   1.392       .  A
C1405      H1411   1.083       .  S
C1406      C1407   1.404       .  A
C1407      C1408   1.392       .  A
C1407      H1412   1.083       .  S
C1408      C1409   1.402       .  A
C1408      H1413   1.084       .  S
C1409      C1410   1.403       .  A
C1410      H1414   1.084       .  S
C1415      C1416   1.401       .  A
C1415      C1420   1.399       .  A
C1415      H1421   1.083       .  S
C1416      C1417   1.410       .  A
C1417      C1418   1.401       .  A
C1417      H1422   1.083       .  S
C1418      C1419   1.399       .  A
C1418      H1423   1.083       .  S
C1419      C1420   1.408       .  A
C1420      H1424   1.084       .  S
C1425      C1426   1.408       .  A
C1425      C1430   1.404       .  A
C1425      H1431   1.083       .  S
C1426      C1427   1.404       .  A
C1427      C1428   1.400       .  A
C1427      H1432   1.083       .  S
C1428      C1429   1.404       .  A
C1428      H1433   1.084       .  S
C1429      C2616   1.473       .  S
C1429      C1430   1.403       .  A
C1430      H1434   1.083       .  S
C1435      C1436   1.403       .  A
C1435      C1440   1.398       .  A
C1435      H1441   1.083       .  S
C1436      C1437   1.408       .  A
C1437      C1438   1.402       .  A
C1437      H1442   1.083       .  S
C1438      C1439   1.404       .  A
C1438      H1443   1.083       .  S
C1439      C1440   1.407       .  A
C1440      H1444   1.083       .  S
C1445      C1446   1.399       .  A
C1445      C1450   1.401       .  A
C1445      H1451   1.083       .  S
C1446      C1447   1.407       .  A
C1447      C1448   1.399       .  A
C1447      H1452   1.084       .  S
C1448      C1449   1.401       .  A
C1448      H1453   1.083       .  S
C1449      C1450   1.410       .  A
C1450      H1454   1.083       .  S
C1455      C1456   1.405       .  A
C1455      C1460   1.399       .  A
C1455      H1461   1.083       .  S
C1456      C1457   1.405       .  A
C1457      C1458   1.399       .  A
C1457      H1462   1.083       .  S
C1458      C1459   1.406       .  A
C1458      H1463   1.083       .  S
C1459      C1460   1.405       .  A
C1460      H1464   1.083       .  S
C1465      C1466   1.404       .  A
C1465      C1470   1.392       .  A
C1465      H1471   1.084       .  S
C1466      C1467   1.402       .  A
C1467      C1468   1.392       .  A
C1467      H1472   1.083       .  S
C1468      C1469   1.403       .  A
C1468      H1473   1.084       .  S
C1469      C1470   1.402       .  A
C1470      H1474   1.084       .  S
C1475      C1476   1.399       .  A
C1475      C1480   1.400       .  A
C1475      H1481   1.083       .  S
C1476      C1477   1.407       .  A
C1477      C1478   1.399       .  A
C1477      H1482   1.084       .  S
C1478      H1483   1.083       .  S
C1480      H1484   1.083       .  S
C1485      C1486   1.405       .  A
C1485      C3154   1.399       .  A
C1485      H1491   1.083       .  S
C1486      C3151   1.406       .  A
C1487      C3150   1.406   1_455  A
C1487      C1488   1.399       .  A
C1487      H1492   1.083       .  S
C1488      C1489   1.405       .  A
C1488      H1493   1.083       .  S
C1489      C1490   1.406       .  A
C1490      C3149   1.399   1_455  A
C1490      H1494   1.083       .  S
C1495      C3164   1.392       .  A
C1495      H1501   1.084       .  S
C1496      C3161   1.402       .  A
C1497      C3160   1.402   1_455  A
C1497      C1498   1.392       .  A
C1497      H3166   1.084       .  S
C1498      H1503   1.084       .  S
C1499      C1500   1.402       .  A
C1500      C3159   1.392   1_455  A
C1500      H1504   1.083       .  S
H1502      C3161   1.084       .  S
C1505      C1506   1.402       .  A
C1505      C1510   1.399       .  A
C1505      H1511   1.084       .  S
C1506      C1507   1.406       .  A
C1507      C1508   1.398       .  A
C1507      H1512   1.083       .  S
C1508      C1509   1.404       .  A
C1508      H1513   1.083       .  S
C1509      C1510   1.408       .  A
C1510      H1514   1.083       .  S
C1515      C1516   1.404       .  A
C1515      C1520   1.400       .  A
C1515      H1521   1.084       .  S
C1516      C1517   1.403       .  A
C1517      C1518   1.405       .  A
C1517      H1522   1.083       .  S
C1518      C1519   1.408       .  A
C1518      H1523   1.083       .  S
C1519      C1520   1.404       .  A
C1520      H1524   1.083       .  S
C1525      C1526   1.404       .  A
C1525      C1530   1.402       .  A
C1525      H1531   1.083       .  S
C1526      C1527   1.407       .  A
C1527      C1528   1.398       .  A
C1527      H1532   1.083       .  S
C1528      C1529   1.403       .  A
C1528      H1533   1.083       .  S
C1529      C1530   1.408       .  A
C1530      H1534   1.083       .  S
C1535      C1536   1.409       .  A
C1535      C1540   1.399       .  A
C1535      H1541   1.083       .  S
C1536      C1537   1.403       .  A
C1537      C1538   1.397       .  A
C1537      H1542   1.083       .  S
C1538      C1539   1.405       .  A
C1538      H1543   1.083       .  S
C1539      C1540   1.400       .  A
C1540      H1544   1.084       .  S
C1545      C1546   1.404       .  A
C1545      C3214   1.392       .  A
C1545      H1551   1.084       .  S
C1546      C3211   1.402       .  A
C1547      C3210   1.402   1_455  A
C1547      C1548   1.392       .  A
C1547      H1552   1.083       .  S
C1548      C1549   1.403       .  A
C1548      H1553   1.084       .  S
C1549      C1550   1.402       .  A
C1550      C3209   1.392   1_455  A
C1550      H1554   1.084       .  S
C1555      C3220   1.404   1_455  A
C1555      C1560   1.399       .  A
C1555      H1561   1.083       .  S
C1556      C3219   1.404       .  A
C1556      C1557   1.407       .  A
C1557      C3222   1.399       .  A
C1557      H1562   1.083       .  S
C1558      C3221   1.399   1_455  A
C1558      C1559   1.404       .  A
C1558      H1563   1.083       .  S
C1559      C1560   1.408       .  A
C1560      H1564   1.083       .  S
C1565      C1566   1.401       .  A
C1565      C1570   1.398       .  A
C1566      C1567   1.406       .  A
C1567      C1568   1.398       .  A
C1567      H1572   1.083       .  S
C1568      C1569   1.403       .  A
C1568      H1573   1.083       .  S
C1569      C1570   1.408       .  A
C1570      H1574   1.083       .  S
C1575      C1576   1.404       .  A
C1575      C1580   1.398       .  A
C1575      H1581   1.083       .  S
C1577      H1582   1.083       .  S
C1578      C1579   1.402       .  A
C1579      C1580   1.406       .  A
C1580      H1584   1.083       .  S
C1585      C1586   1.404       .  A
C1585      C1590   1.401       .  A
C1585      H1591   1.083       .  S
C1586      C1587   1.408       .  A
C1587      C1588   1.400       .  A
C1587      H1592   1.083       .  S
C1588      C1589   1.404       .  A
C1588      H1593   1.083       .  S
C1589      C1590   1.409       .  A
C1590      H1594   1.083       .  S
C1595      C1596   1.403       .  A
C1595      C1600   1.392       .  A
C1595      H1601   1.084       .  S
C1596      C1597   1.402       .  A
C1597      C1598   1.392       .  A
C1597      H1602   1.084       .  S
C1598      C1599   1.404       .  A
C1598      H1603   1.084       .  S
C1599      C1600   1.403       .  A
C1600      H1604   1.083       .  S
C1605      H1611   1.083       .  S
C1606      C1607   1.410       .  A
C1607      C1608   1.399       .  A
C1607      H1612   1.083       .  S
C1608      C1609   1.399       .  A
C1608      H1613   1.083       .  S
C1609      C1610   1.407       .  A
C1615      C1616   1.407       .  A
C1615      C1620   1.404       .  A
C1615      H1621   1.083       .  S
C1616      C1617   1.404       .  A
C1617      C1618   1.399       .  A
C1617      H1622   1.083       .  S
C1618      C1619   1.404       .  A
C1618      H1623   1.084       .  S
C1619      C1620   1.404       .  A
C1620      H1624   1.083       .  S
C1625      C1630   1.399   1_545  A
C1625      H1631   1.083       .  S
C1626      C2506   1.480   1_455  S
C1626      C1627   1.407       .  A
C1627      C1628   1.402       .  A
C1627      H1632   1.083       .  S
C1628      C1629   1.404       .  A
C1628      H1633   1.083       .  S
C1630      H1634   1.083       .  S
C1635      H1641   1.084       .  S
C1636      C1637   1.398       .  A
C1637      C1638   1.400       .  A
C1637      H1642   1.083       .  S
C1638      C1639   1.410       .  A
C1638      H1643   1.083       .  S
C1639      C1640   1.401       .  A
C1645      C3310   1.403   1_455  A
C1645      C1650   1.396       .  A
C1645      H1651   1.083       .  S
C1646      C3309   1.403       .  A
C1646      C1647   1.407       .  A
C1647      C1648   1.399       .  A
C1647      H1652   1.083       .  S
C1648      C3313   1.404       .  A
C1648      H1653   1.083       .  S
C1649      C3312   1.404   1_455  A
C1649      C1650   1.406       .  A
C1650      H1654   1.083       .  S
C1655      C1656   1.403       .  A
C1655      C1660   1.392       .  A
C1655      H1661   1.084       .  S
C1656      C1657   1.401       .  A
C1657      C1658   1.391       .  A
C1657      H1662   1.084       .  S
C1658      C1659   1.404       .  A
C1658      H1663   1.083       .  S
C1659      C1660   1.403       .  A
C1660      H1664   1.083       .  S
Fe1665     O1681   2.051       .  S
Fe1665     O1671   2.074       .  S
Fe1665     O1678   2.079       .  S
Fe1665     O1670   2.027       .  S
Fe1665     O1676   1.940       .  S
Fe1666     O1669   2.033       .  S
Fe1666     O1673   2.104       .  S
Fe1666     O1677   2.039       .  S
Fe1666     O1682   2.086       .  S
Fe1666     O1676   1.910       .  S
Fe1667     O1685   2.120       .  S
Fe1667     O1672   2.072       .  S
Fe1667     O1679   2.078       .  S
Fe1667     O1668   2.122       .  S
Fe1667     O2508   1.929   1_545  S
O1668      C1675   1.283       .  A
O1669      C2515   1.267       .  A
O1670      C2507   1.268       .  A
O1671      C2506   1.267       .  A
O1672      C1684   1.270       .  A
O1673      C1686   1.279       .  A
C1674      O2503   1.267       .  A
C1674      O1679   1.270       .  A
C1675      O2502   1.268   1_545  A
C1675      C2468   1.470       .  S
O1676     Fe2499   1.929       .  S
O1677      C1680   1.260       .  A
O1678      C1680   1.266       .  A
C1680      C2488   1.457       .  S
O1681      C1686   1.273       .  A
O1682      C2516   1.273       .  A
C1683      O2501   1.267       .  A
C1683      O1685   1.282   1_565  A
C1683      C3270   1.479       .  S
C1684      O2514   1.273   1_545  A
C1684      C2448   1.482       .  S
C1686      C2478   1.476       .  S
Fe1687     O1703   2.040       .  S
Fe1687     O1693   2.047       .  S
Fe1687     O1700   2.071       .  S
Fe1687     O1692   2.018       .  S
Fe1687     O1698   1.951       .  S
Fe1688     O1691   2.052       .  S
Fe1688     O1695   2.115       .  S
Fe1688     O1699   2.046       .  S
Fe1688     O1704   2.076       .  S
Fe1688     O1698   1.944       .  S
Fe1689     O1707   2.098       .  S
Fe1689     O1694   2.073       .  S
Fe1689     O1701   2.095       .  S
Fe1689     O1690   2.107       .  S
Fe1689     O2530   1.940   1_545  S
O1690      C2529   1.280   1_545  A
O1691      C2537   1.276       .  A
O1692      C1697   1.263       .  A
O1693      C2528   1.263       .  A
O1694      C1706   1.269   1_545  A
O1695      C1708   1.276       .  A
C1696      O2525   1.263   1_545  A
C1696      O1701   1.272       .  A
C1696      C2451   1.472       .  S
C1697      O2522   1.280       .  A
C1697      C2398   1.470       .  S
O1698     Fe2521   1.940       .  S
O1699      C1702   1.268       .  A
O1700      C1702   1.270       .  A
C1702      C2431   1.466       .  S
O1703      C1708   1.263       .  A
O1704      C2538   1.269       .  A
C1705      O2523   1.276   1_545  A
C1705      O1707   1.281       .  A
C1705      C2408   1.481       .  S
C1706      O2536   1.269       .  A
C1706      C2461   1.481   1_565  S
C1708      C2418   1.481       .  S
Fe1709     O1725   2.040       .  S
Fe1709     O1715   2.047       .  S
Fe1709     O1722   2.071       .  S
Fe1709     O1714   2.015       .  S
Fe1709     O1720   1.950       .  S
Fe1710     O1713   2.045       .  S
Fe1710     O1717   2.111       .  S
Fe1710     O1721   2.044       .  S
Fe1710     O1726   2.075       .  S
Fe1710     O1720   1.939       .  S
Fe1711     O1729   2.101       .  S
Fe1711     O1716   2.074       .  S
Fe1711     O1723   2.097       .  S
Fe1711     O1712   2.111       .  S
Fe1711     O1720   1.938       .  S
O1712      C1719   1.281       .  A
O1713      C1727   1.274       .  A
O1714      C1719   1.262       .  A
O1715      C1718   1.262       .  A
O1716      C1728   1.269       .  A
O1717      C1730   1.276       .  A
C1718      O1723   1.273       .  A
C1718      C2348   1.472       .  S
C1719      C2338   1.470       .  S
O1721      C1724   1.267       .  A
O1722      C1724   1.270       .  A
C1724      C2378   1.464       .  S
O1725      C1730   1.263       .  A
O1726      C1728   1.269       .  A
C1727      O1729   1.282       .  A
C1727      C2368   1.480       .  S
C1728      C2358   1.480       .  S
C1730      C2388   1.480       .  S
Fe1731     O1747   2.052       .  S
Fe1731     O1737   2.076       .  S
Fe1731     O1744   2.081       .  S
Fe1731     O1736   2.029       .  S
Fe1731     O1742   1.937       .  S
Fe1732     O1735   2.032       .  S
Fe1732     O1739   2.108       .  S
Fe1732     O1743   2.038       .  S
Fe1732     O2580   2.092   1_545  S
Fe1732     O1742   1.911       .  S
Fe1733     O1751   2.120       .  S
Fe1733     O2570   2.069       .  S
Fe1733     O1745   2.076       .  S
Fe1733     O1734   2.121       .  S
Fe1733     O1742   1.931       .  S
O1734      C1741   1.282       .  A
O1735      C1749   1.266       .  A
O1736      C1741   1.267       .  A
O1737      C1740   1.268       .  A
O1738     Fe2565   2.069       .  S
O1738      C1750   1.270       .  A
O1739      C1752   1.280       .  A
C1740      O1745   1.271       .  A
C1740      C2361   1.479       .  S
C1741      C2308   1.471       .  S
O1743      C1746   1.261       .  A
O1744      C1746   1.268       .  A
C1746      C2328   1.458   1_545  S
O1747      C1752   1.272       .  A
O1748     Fe2564   2.092       .  S
O1748      C1750   1.275       .  A
C1749      O1751   1.282       .  A
C1749      C2471   1.478       .  S
C1750      C2351   1.485       .  S
C1752      C2318   1.479       .  S
Fe1753     O1769   2.052       .  S
Fe1753     O1759   2.076       .  S
Fe1753     O1766   2.082       .  S
Fe1753     O1758   2.030       .  S
Fe1753     O1764   1.937       .  S
Fe1754     O1757   2.032       .  S
Fe1754     O1761   2.108       .  S
Fe1754     O1765   2.038       .  S
Fe1754     O1770   2.093       .  S
Fe1754     O1764   1.911       .  S
Fe1755     O1773   2.122       .  S
Fe1755     O1760   2.068       .  S
Fe1755     O1767   2.078       .  S
Fe1755     O1756   2.122       .  S
Fe1755     O1764   1.930       .  S
O1756      C1763   1.283       .  A
O1757      C1771   1.265       .  A
O1758      C1763   1.268       .  A
O1759      C1762   1.268       .  A
O1760      C1772   1.270       .  A
O1761      C1774   1.280       .  A
C1762      O1767   1.271       .  A
C1762      C2268   1.480       .  S
C1763      C2278   1.472       .  S
O1765      C1768   1.261       .  A
O1766      C1768   1.267       .  A
C1768      C2301   1.458       .  S
O1769      C1774   1.272       .  A
O1770      C1772   1.275       .  A
C1771      O1773   1.282       .  A
C1771      C2248   1.478       .  S
C1772      C2258   1.485       .  S
C1774      C2291   1.479       .  S
Fe1775     O1791   2.041       .  S
Fe1775     O1781   2.050   1_655  S
Fe1775     O1788   2.070       .  S
Fe1775     O1780   2.015       .  S
Fe1775     O1786   1.950       .  S
Fe1776     O1779   2.049       .  S
Fe1776     O1783   2.113       .  S
Fe1776     O1787   2.045       .  S
Fe1776     O1792   2.076       .  S
Fe1776     O1786   1.938       .  S
Fe1777     O1795   2.098       .  S
Fe1777     O1782   2.075       .  S
Fe1777     O1789   2.097       .  S
Fe1777     O1778   2.111       .  S
Fe1777     O1786   1.937       .  S
O1778      C1785   1.281       .  A
O1779      C1793   1.275       .  A
O1780      C1785   1.262       .  A
O1781      C1784   1.263       .  A
O1782      C1794   1.270       .  A
O1783      C1796   1.277       .  A
C1784      O1789   1.273   1_455  A
C1785      C2218   1.469       .  S
O1787      C1790   1.267       .  A
O1788      C1790   1.269       .  A
C1790      C2238   1.465       .  S
O1791      C1796   1.264       .  A
O1792      C1794   1.270       .  A
C1793      O1795   1.280       .  A
C1793      C2341   1.480       .  S
C1794      C2271   1.481       .  S
C1796      C2228   1.481       .  S
Fe1797     O1813   2.049       .  S
Fe1797     O1803   2.077       .  S
Fe1797     O1810   2.085       .  S
Fe1797     O1802   2.029       .  S
Fe1797     O1808   1.935       .  S
Fe1798     O1801   2.033       .  S
Fe1798     O1805   2.109       .  S
Fe1798     O1809   2.037   1_556  S
Fe1798     O1814   2.095       .  S
Fe1798     O1808   1.910   1_556  S
Fe1799     O1817   2.121       .  S
Fe1799     O1804   2.067       .  S
Fe1799     O1811   2.074       .  S
Fe1799     O1800   2.120   1_556  S
Fe1799     O1808   1.929   1_556  S
O1800      C1807   1.282       .  A
O1801      C1815   1.265       .  A
O1802      C1807   1.267       .  A
O1803      C1806   1.269       .  A
O1804      C1816   1.270       .  A
O1805      C1818   1.280   1_556  A
C1806      O1811   1.271   1_554  A
C1806      C2168   1.478       .  S
C1807      C2191   1.468       .  S
O1809      C1812   1.261       .  A
O1810      C1812   1.269       .  A
C1812      C2198   1.459       .  S
O1813      C1818   1.271       .  A
O1814      C1816   1.275       .  A
C1815      O1817   1.281       .  A
C1815      C2281   1.478       .  S
C1816      C2178   1.485       .  S
C1818      C2208   1.478       .  S
Fe1819     O1835   2.042   1_554  S
Fe1819     O1825   2.047       .  S
Fe1819     O1832   2.066       .  S
Fe1819     O1824   2.017       .  S
Fe1819     O1830   1.949   1_554  S
Fe1820     O1823   2.051       .  S
Fe1820     O1827   2.113       .  S
Fe1820     O1831   2.047   1_556  S
Fe1820     O2668   2.074   1_545  S
Fe1820     O1830   1.939       .  S
Fe1821     O1839   2.098   1_554  S
Fe1821     O2658   2.073   1_545  S
Fe1821     O1833   2.097   1_554  S
Fe1821     O1822   2.110       .  S
Fe1821     O1830   1.937   1_554  S
O1822      C1829   1.281       .  A
O1823      C1837   1.276       .  A
O1824      C1829   1.263       .  A
O1825      C1828   1.262       .  A
O1826     Fe2653   2.073       .  S
O1826      C1838   1.269       .  A
O1827      C1840   1.277       .  A
C1828      O1833   1.273   1_554  A
C1828      C2181   1.472   1_554  S
C1829      C2411   1.471       .  S
O1831      C1834   1.267       .  A
O1832      C1834   1.268       .  A
C1834      C2158   1.465       .  S
O1835      C1840   1.264       .  A
O1836     Fe2652   2.074       .  S
O1836      C1838   1.269   1_556  A
C1837      O1839   1.281       .  A
C1837      C2138   1.482       .  S
C1838      C2171   1.479       .  S
C1840      C2151   1.481       .  S
Fe1841     O1857   2.054       .  S
Fe1841     O1847   2.075       .  S
Fe1841     O1854   2.079       .  S
Fe1841     O1846   2.031       .  S
Fe1841     O1852   1.939       .  S
Fe1842     O1845   2.033       .  S
Fe1842     O1849   2.107       .  S
Fe1842     O1853   2.039       .  S
Fe1842     O1858   2.091       .  S
Fe1842     O1852   1.912       .  S
Fe1843     O1861   2.120       .  S
Fe1843     O1848   2.067       .  S
Fe1843     O1855   2.075       .  S
Fe1843     O1844   2.122       .  S
Fe1843     O1852   1.931       .  S
O1844      C1851   1.283       .  A
O1845      C1859   1.266       .  A
O1846      C1851   1.268       .  A
O1847      C1850   1.267       .  A
O1848      C1860   1.269       .  A
O1849      C1862   1.280       .  A
C1850      O1855   1.270       .  A
C1850      C2121   1.479       .  S
C1851      C2251   1.472       .  S
O1853      C1856   1.261       .  A
O1854      C1856   1.267       .  A
C1856      C2381   1.458       .  S
O1857      C1862   1.273       .  A
O1858      C1860   1.274       .  A
C1859      O1861   1.282       .  A
C1859      C2108   1.479       .  S
C1860      C2128   1.484       .  S
C1862      C2321   1.480       .  S
Fe1863     O1879   2.040       .  S
Fe1863     O1869   2.051       .  S
Fe1863     O1876   2.070       .  S
Fe1863     O1868   2.013       .  S
Fe1863     O1874   1.949       .  S
Fe1864     O1867   2.047       .  S
Fe1864     O1871   2.113       .  S
Fe1864     O1875   2.045       .  S
Fe1864     O1880   2.078       .  S
Fe1864     O1874   1.935       .  S
Fe1865     O1883   2.097       .  S
Fe1865     O1870   2.072       .  S
Fe1865     O1877   2.095       .  S
Fe1865     O1866   2.114       .  S
Fe1865     O1874   1.935       .  S
O1866      C1873   1.282       .  A
O1867      C1881   1.274       .  A
O1868      C1873   1.262       .  A
O1869      C1872   1.262       .  A
O1870      C2714   1.270       .  A
O1871      C1884   1.278       .  A
C1872      O1877   1.272       .  A
C1872      C2131   1.471       .  S
C1873      C2101   1.467       .  S
O1875      C1878   1.266       .  A
O1876      C1878   1.269       .  A
C1878      C2331   1.465       .  S
O1879      C1884   1.265       .  A
O1880      C2714   1.271       .  A
C1881      O1883   1.280       .  A
C1881      C2401   1.479       .  S
C1882      O2702   1.270   1_545  A
C1882      O2712   1.271   1_545  A
C1882      C2118   1.480       .  S
C1884      C2391   1.481       .  S
Fe1885     O1901   2.052       .  S
Fe1885     O2723   2.076   1_545  S
Fe1885     O1898   2.082       .  S
Fe1885     O2722   2.031   1_545  S
Fe1885     O1896   1.937       .  S
Fe1886     O1889   2.031       .  S
Fe1886     O1893   2.107       .  S
Fe1886     O1897   2.038       .  S
Fe1886     O1902   2.092       .  S
Fe1886     O1896   1.912       .  S
Fe1887     O1905   2.121       .  S
Fe1887     O1892   2.070       .  S
Fe1887     O1899   2.076       .  S
Fe1887     O1888   2.123       .  S
Fe1887     O2728   1.930       .  S
O1888      C1895   1.283       .  A
O1889      C2735   1.266       .  A
O1890     Fe2717   2.031       .  S
O1890      C1895   1.268       .  A
O1891     Fe2717   2.076       .  S
O1891      C1894   1.268       .  A
O1892      C1904   1.270       .  A
O1893      C1906   1.279       .  A
C1894      O1899   1.271       .  A
C1894      C2078   1.479       .  S
C1895      C2088   1.470       .  S
O1896     Fe2719   1.930   1_545  S
O1897      C1900   1.261       .  A
O1898      C1900   1.268       .  A
C1900      C2241   1.459       .  S
O1901      C1906   1.272       .  A
O1902      C2736   1.274   1_545  A
C1903      O2721   1.266       .  A
C1903      O1905   1.282       .  A
C1903      C2311   1.478       .  S
C1904      O2734   1.274       .  A
C1904      C2068   1.484       .  S
C1906      C2288   1.479       .  S
Fe1907     O1923   2.041       .  S
Fe1907     O2745   2.052       .  S
Fe1907     O1920   2.072       .  S
Fe1907     O1912   2.014       .  S
Fe1907     O1918   1.949       .  S
Fe1908     O2743   2.048       .  S
Fe1908     O1915   2.112       .  S
Fe1908     O1919   2.044       .  S
Fe1908     O1924   2.078       .  S
Fe1908     O1918   1.938       .  S
Fe1909     O1927   2.100       .  S
Fe1909     O1914   2.072       .  S
Fe1909     O1921   2.096       .  S
Fe1909     O1910   2.111       .  S
Fe1909     O2750   1.937       .  S
O1910      C1917   1.281       .  A
O1911     Fe2740   2.048       .  S
O1911      C1925   1.274       .  A
O1912      C2749   1.262   1_545  A
O1913     Fe2739   2.052       .  S
O1913      C1916   1.263       .  A
O1914      C1926   1.269       .  A
O1915      C1928   1.277       .  A
C1916      O1921   1.273       .  A
C1917      O2744   1.262       .  A
C1917      C2973   1.469       .  S
O1918     Fe2741   1.937   1_545  S
O1919      C1922   1.267       .  A
O1920      C1922   1.270       .  A
C1922      C2298   1.465       .  S
O1923      C1928   1.264       .  A
O1924      C2758   1.270   1_545  A
C1925      O1927   1.281       .  A
C1925      C2098   1.482       .  S
C1926      O2756   1.270       .  A
C1926      C2081   1.481       .  S
C1928      C2231   1.481       .  S
Fe1929     O1945   2.059       .  S
Fe1929     O1935   2.075       .  S
Fe1929     O1942   2.084       .  S
Fe1929     O1934   2.031       .  S
Fe1929     O1940   1.937       .  S
Fe1930     O1933   2.034       .  S
Fe1930     O1937   2.091       .  S
Fe1930     O1941   2.038       .  S
Fe1930     O1946   2.073       .  S
Fe1930     O1940   1.906       .  S
Fe1931     O1949   2.119       .  S
Fe1931     O1936   2.081       .  S
Fe1931     O1943   2.080       .  S
Fe1931     O1932   2.120       .  S
Fe1931     O1940   1.933       .  S
O1932      C1939   1.282       .  A
O1933      C1947   1.267       .  A
O1934      C1939   1.267       .  A
O1935      C1938   1.269       .  A
O1936      C1948   1.271       .  A
O1937      C1950   1.276       .  A
C1938      O1943   1.273       .  A
C1939      C2111   1.470       .  S
O1941      C1944   1.262       .  A
O1942      C1944   1.269       .  A
C1944      C2428   1.457       .  S
O1945      C1950   1.272       .  A
O1946      C1948   1.272       .  A
C1947      O1949   1.282       .  A
C1947      C2188   1.480       .  S
C1948      C2048   1.486       .  S
C1950      C2481   1.477       .  S
Fe1951     O1967   2.042       .  S
Fe1951     O1957   2.044       .  S
Fe1951     O1964   2.057       .  S
Fe1951     O1956   2.005       .  S
Fe1951     O1962   1.936       .  S
Fe1952     O1955   2.047       .  S
Fe1952     O1959   2.123       .  S
Fe1952     O1963   2.054       .  S
Fe1952     O1968   2.083       .  S
Fe1952     O1962   1.923       .  S
Fe1953     O1971   2.100       .  S
Fe1953     O1958   2.076       .  S
Fe1953     O1965   2.116       .  S
Fe1953     O1954   2.129       .  S
Fe1953     O1962   1.931       .  S
O1954      C1961   1.286       .  A
O1955      C1969   1.273       .  A
O1956      C1961   1.264       .  A
O1957      C1960   1.258       .  A
O1958      C1970   1.274       .  A
O1959      C1972   1.282       .  A
C1960      O1965   1.272       .  A
C1960      C2051   1.482       .  S
C1961      C2371   1.465       .  S
O1963      C1966   1.266       .  A
O1964      C1966   1.265       .  A
C1966      C2491   1.465       .  S
O1967      C1972   1.267       .  A
O1968      C1970   1.274       .  A
C1969      O1971   1.280       .  A
C1969      C2038   1.484       .  S
C1970      C2061   1.482       .  S
C1972      C2421   1.483       .  S
Fe1973     O1989   2.042   1_554  S
Fe1973     O1979   2.054       .  S
Fe1973     O1986   2.071       .  S
Fe1973     O1978   2.014       .  S
Fe1973     O1984   1.952       .  S
Fe1974     O1977   2.050       .  S
Fe1974     O1981   2.114       .  S
Fe1974     O1985   2.044   1_556  S
Fe1974     O1990   2.077       .  S
Fe1974     O1984   1.939   1_556  S
Fe1975     O1993   2.095   1_554  S
Fe1975     O1980   2.066       .  S
Fe1975     O1987   2.093   1_554  S
Fe1975     O1976   2.113       .  S
Fe1975     O1984   1.938       .  S
O1976      C1983   1.281       .  A
O1977      C1991   1.274       .  A
O1978      C1983   1.262       .  A
O1979      C1982   1.263       .  A
O1980      C1992   1.268       .  A
O1981      C1994   1.279       .  A
C1982      O1987   1.271   1_554  A
C1982      C2018   1.472   1_554  S
C1983      C2041   1.466       .  S
O1985      C1988   1.265       .  A
O1986      C1988   1.268       .  A
C1988      C2201   1.466       .  S
O1989      C1994   1.266       .  A
O1990      C1992   1.269   1_556  A
C1991      O1993   1.279       .  A
C1991      C2221   1.481       .  S
C1992      C2031   1.467       .  S
C1994      C2148   1.482       .  S
Fe1995     O2011   2.050       .  S
Fe1995     O2001   2.060       .  S
Fe1995     O2008   2.074       .  S
Fe1995     O2000   2.028       .  S
Fe1995     O2006   1.937       .  S
Fe1996     O1999   2.032       .  S
Fe1996     O2003   2.111   1_556  S
Fe1996     O2007   2.042   1_556  S
Fe1996     O2012   2.088       .  S
Fe1996     O2006   1.910   1_556  S
Fe1997     O2015   2.122       .  S
Fe1997     O2002   2.070       .  S
Fe1997     O2009   2.086       .  S
Fe1997     O1998   2.125   1_556  S
Fe1997     O2006   1.932   1_556  S
O1998      C2005   1.284       .  A
O1999      C2013   1.266       .  A
O2000      C2005   1.269       .  A
O2001      C2004   1.265       .  A
O2002      C2846   1.270       .  A
O2003      C2016   1.282       .  A
C2004      O2009   1.271   1_554  A
C2004      C2028   1.483       .  S
C2005      C2441   1.469       .  S
O2007      C2010   1.259       .  A
O2008      C2010   1.264       .  A
C2010      C2161   1.457       .  S
O2011      C2016   1.273       .  A
O2012      C2846   1.274       .  A
C2013      O2015   1.282       .  A
C2013      C2091   1.481       .  S
C2014      O2834   1.270   1_545  A
C2014      O2844   1.274   1_545  A
C2014      C2021   1.480       .  S
C2016      C2211   1.478       .  S
C2017      C2018   1.404       .  A
C2017      C2022   1.401       .  A
C2017      H2023   1.084       .  S
C2018      C2019   1.404   1_556  A
C2019      C2020   1.403       .  A
C2019      H2024   1.083       .  S
C2020      C2021   1.406   1_554  A
C2020      H2025   1.083       .  S
C2021      C2022   1.404       .  A
C2022      H2026   1.083       .  S
C2027      C2028   1.410       .  A
C2027      C2032   1.395       .  A
C2027      H2033   1.083       .  S
C2028      C2029   1.406   1_554  A
C2029      C2030   1.404       .  A
C2029      H2034   1.083       .  S
C2030      C2031   1.405   1_556  A
C2030      H2035   1.083       .  S
C2031      C2032   1.397       .  A
C2032      H2036   1.084       .  S
C2037      C2038   1.409       .  A
C2037      C2042   1.397       .  A
C2037      H2043   1.083       .  S
C2038      C2039   1.406       .  A
C2039      C2040   1.400       .  A
C2039      H2044   1.083       .  S
C2040      C2041   1.404       .  A
C2040      H2045   1.083       .  S
C2041      C2042   1.401       .  A
C2042      H2046   1.084       .  S
C2047      C2048   1.412       .  A
C2047      C2052   1.416       .  A
C2047      H2053   1.082       .  S
C2048      C2049   1.401       .  A
C2049      C2050   1.384       .  A
C2049      H2054   1.084       .  S
C2050      C2051   1.403       .  A
C2050      H2055   1.080       .  S
C2051      C2052   1.407       .  A
C2052      H2056   1.083       .  S
C2057      C2058   1.407       .  A
C2057      C2062   1.402       .  A
C2057      H2063   1.083       .  S
C2058      C2059   1.404       .  A
C2059      C2060   1.399       .  A
C2059      H2064   1.083       .  S
C2060      C2061   1.407       .  A
C2060      H2065   1.083       .  S
C2061      C2062   1.404       .  A
C2062      H2066   1.083       .  S
C2067      C2068   1.408       .  A
C2067      C2072   1.404       .  A
C2067      H2073   1.083       .  S
C2068      C2069   1.404       .  A
C2069      C2070   1.400       .  A
C2069      H2074   1.083       .  S
C2070      C2071   1.404       .  A
C2071      C2072   1.404       .  A
C2072      H2076   1.083       .  S
C2077      C2078   1.407       .  A
C2077      C2082   1.402       .  A
C2077      H2083   1.083       .  S
C2078      C2079   1.403       .  A
C2079      C2080   1.399       .  A
C2079      H2084   1.083       .  S
C2080      C2081   1.407       .  A
C2080      H2085   1.083       .  S
C2081      C2082   1.404       .  A
C2082      H2086   1.083       .  S
C2087      C2088   1.399       .  A
C2087      C2092   1.400       .  A
C2087      H2093   1.083       .  S
C2088      C2089   1.407       .  A
C2089      C2090   1.401       .  A
C2089      H2094   1.084       .  S
C2090      C2091   1.402       .  A
C2090      H2095   1.083       .  S
C2091      C2092   1.411       .  A
C2092      H2096   1.084       .  S
C2097      C2098   1.409       .  A
C2097      C2102   1.399       .  A
C2097      H2103   1.083       .  S
C2098      C2099   1.405       .  A
C2099      C2100   1.399       .  A
C2099      H2104   1.083       .  S
C2100      C2101   1.405       .  A
C2100      H2105   1.083       .  S
C2101      C2102   1.401       .  A
C2102      H2106   1.084       .  S
C2107      C2108   1.410       .  A
C2107      C2112   1.400       .  A
C2107      H2113   1.084       .  S
C2108      C2109   1.402       .  A
C2109      C2110   1.400       .  A
C2109      H2114   1.083       .  S
C2110      C2111   1.407       .  A
C2110      H2115   1.084       .  S
C2111      C2112   1.399       .  A
C2112      H2116   1.083       .  S
C2117      C2118   1.407       .  A
C2117      C2122   1.398       .  A
C2117      H2123   1.083       .  S
C2118      C2119   1.404       .  A
C2119      C2120   1.402       .  A
C2119      H2124   1.083       .  S
C2120      C2121   1.407       .  A
C2120      H2125   1.083       .  S
C2121      C2122   1.403       .  A
C2122      H2126   1.083       .  S
C2127      C2128   1.404       .  A
C2127      C2132   1.399       .  A
C2127      H2133   1.083       .  S
C2128      C2129   1.409       .  A
C2129      C2130   1.404       .  A
C2129      H2134   1.083       .  S
C2130      C2131   1.403       .  A
C2130      H2135   1.083       .  S
C2131      C2132   1.404       .  A
C2132      H2136   1.084       .  S
C2137      C2138   1.404       .  A
C2137      C2142   1.398       .  A
C2137      H2143   1.083       .  S
C2138      C2139   1.409       .  A
C2139      C2140   1.400   1_545  A
C2139      H2144   1.082       .  S
C2140      C2141   1.402       .  A
C2140      H2145   1.084       .  S
C2141      C2749   1.470       .  S
C2141      C2142   1.405   1_565  A
C2142      H2978   1.083       .  S
H2146      C2974   1.083       .  S
C2147      C2148   1.404       .  A
C2147      C2152   1.400       .  A
C2147      H2153   1.083       .  S
C2148      C2149   1.408       .  A
C2149      C2150   1.400       .  A
C2149      H2154   1.083       .  S
C2150      C2151   1.404       .  A
C2150      H2155   1.083       .  S
C2151      C2152   1.407       .  A
C2152      H2156   1.083       .  S
C2157      C2158   1.403       .  A
C2157      C2162   1.391       .  A
C2157      H2163   1.083       .  S
C2158      C2991   1.403   1_545  A
C2159      C2990   1.403       .  A
C2159      C2160   1.391       .  A
C2159      H2164   1.083       .  S
C2160      C2161   1.402       .  A
C2160      H2165   1.084       .  S
C2161      C2994   1.402       .  A
C2162      C2993   1.402   1_545  A
C2162      H2166   1.084       .  S
C2167      C2168   1.408       .  A
C2167      C2172   1.402       .  A
C2167      H2173   1.083       .  S
C2168      C2169   1.403   1_554  A
C2169      C2170   1.398       .  A
C2169      H2174   1.083       .  S
C2170      C2171   1.406   1_556  A
C2170      H2175   1.083       .  S
C2171      C2172   1.403       .  A
C2172      H2176   1.083       .  S
C2177      C2178   1.404       .  A
C2177      C2182   1.399       .  A
C2177      H2183   1.083       .  S
C2178      C2179   1.408   1_556  A
C2179      C2180   1.404       .  A
C2179      H2184   1.083       .  S
C2180      C2181   1.403   1_554  A
C2180      H2185   1.083       .  S
C2181      C2182   1.404       .  A
C2182      H2186   1.084       .  S
C2187      C2188   1.411       .  A
C2187      C2192   1.399       .  A
C2187      H2193   1.083       .  S
C2188      C2189   1.402       .  A
C2189      C2190   1.399       .  A
C2189      H2194   1.083       .  S
C2190      C2191   1.406       .  A
C2190      H2195   1.084       .  S
C2191      C2192   1.399       .  A
C2192      H2196   1.083       .  S
C2197      C2198   1.404       .  A
C2197      C2202   1.393       .  A
C2197      H2203   1.084       .  S
C2198      C2199   1.402       .  A
C2199      C2200   1.392       .  A
C2199      H2204   1.084       .  S
C2200      C2201   1.404       .  A
C2200      H2205   1.084       .  S
C2201      C2202   1.402       .  A
C2202      H2206   1.083       .  S
C2207      C2208   1.405       .  A
C2207      C2212   1.399       .  A
C2207      H2213   1.083       .  S
C2208      C2209   1.406       .  A
C2209      C2210   1.398       .  A
C2209      H2214   1.083       .  S
C2210      C2211   1.405       .  A
C2210      H2215   1.083       .  S
C2211      C2212   1.406       .  A
C2212      H2216   1.083       .  S
C2217      C2218   1.402       .  A
C2217      C2222   1.399       .  A
C2217      H2223   1.084       .  S
C2218      C2219   1.406       .  A
C2219      C2220   1.398       .  A
C2219      H2224   1.083       .  S
C2220      C2221   1.404       .  A
C2220      H2225   1.083       .  S
C2221      C2222   1.409       .  A
C2222      H2226   1.083       .  S
C2227      C2232   1.400       .  A
C2227      H2233   1.083       .  S
C2228      C2229   1.404       .  A
C2229      C2230   1.400       .  A
C2229      H2234   1.083       .  S
C2230      H2235   1.083       .  S
C2231      C2232   1.404       .  A
C2232      H2236   1.083       .  S
C2237      C2238   1.403       .  A
C2237      C2242   1.392       .  A
C2237      H2243   1.083       .  S
C2238      C2239   1.404       .  A
C2239      C2240   1.392       .  A
C2239      H2244   1.083       .  S
C2240      C2241   1.402       .  A
C2240      H2245   1.084       .  S
C2241      C2242   1.403       .  A
C2242      H2246   1.084       .  S
C2247      C2248   1.401       .  A
C2247      C2252   1.399       .  A
C2247      H2253   1.083       .  S
C2248      C2249   1.410       .  A
C2249      C2250   1.401       .  A
C2249      H2254   1.083       .  S
C2250      C2251   1.399       .  A
C2250      H2255   1.083       .  S
C2251      C2252   1.408       .  A
C2252      H2256   1.084       .  S
C2257      C2258   1.408       .  A
C2257      C2262   1.404       .  A
C2257      H2263   1.083       .  S
C2258      C2259   1.404       .  A
C2259      C2260   1.400       .  A
C2259      H2264   1.083       .  S
C2260      C2261   1.404       .  A
C2260      H2265   1.084       .  S
C2261      C2262   1.403       .  A
C2262      H2266   1.083       .  S
C2267      C2268   1.403       .  A
C2267      C2272   1.398       .  A
C2267      H2273   1.083       .  S
C2268      C2269   1.408       .  A
C2269      C2270   1.402       .  A
C2269      H2274   1.083       .  S
C2270      C2271   1.404       .  A
C2270      H2275   1.083       .  S
C2271      C2272   1.407       .  A
C2272      H2276   1.083       .  S
C2277      C2278   1.399       .  A
C2277      C2282   1.401       .  A
C2277      H2283   1.083       .  S
C2278      C2279   1.407       .  A
C2279      C2280   1.399       .  A
C2279      H2284   1.084       .  S
C2280      C2281   1.401       .  A
C2280      H2285   1.083       .  S
C2281      C2282   1.410       .  A
C2282      H2286   1.083       .  S
C2287      C2288   1.405       .  A
C2287      C2292   1.399       .  A
C2287      H2293   1.083       .  S
C2288      C2289   1.405       .  A
C2289      C2290   1.399       .  A
C2289      H2294   1.083       .  S
C2290      C2291   1.406       .  A
C2290      H2295   1.083       .  S
C2291      C2292   1.405       .  A
C2292      H2296   1.083       .  S
C2297      C2298   1.404       .  A
C2297      C2302   1.392       .  A
C2297      H2303   1.084       .  S
C2298      C2299   1.402       .  A
C2299      C2300   1.392       .  A
C2299      H2304   1.083       .  S
C2300      C2301   1.403       .  A
C2300      H2305   1.084       .  S
C2301      C2302   1.402       .  A
C2302      H2306   1.084       .  S
C2307      C2308   1.399       .  A
C2307      C2312   1.400       .  A
C2307      H2313   1.083       .  S
C2308      C2309   1.407   1_545  A
C2309      C2310   1.399       .  A
C2309      H2314   1.084       .  S
C2310      C3143   1.401   1_565  A
C2310      H2315   1.083       .  S
C2311      C3142   1.401       .  A
C2311      C3144   1.410       .  A
C2312      C3143   1.410       .  A
C2312      H2316   1.083       .  S
C2317      C2318   1.405       .  A
C2317      H2323   1.083       .  S
C2319      C2320   1.399       .  A
C2319      H2324   1.083       .  S
C2320      C2321   1.405       .  A
C2320      H2325   1.083       .  S
C2321      C2322   1.406       .  A
C2322      H2326   1.083       .  S
C2327      C3160   1.403       .  A
C2327      H2333   1.084       .  S
C2328      C3159   1.403       .  A
C2329      C2330   1.392       .  A
C2330      C3163   1.404   1_545  A
C2330      H2335   1.084       .  S
C2331      C3162   1.404       .  A
C2331      C2332   1.402       .  A
C2332      H2336   1.083       .  S
C2337      C2338   1.402       .  A
C2337      C2342   1.399       .  A
C2337      H2343   1.084       .  S
C2338      C2339   1.406       .  A
C2339      C2340   1.398       .  A
C2339      H2344   1.083       .  S
C2340      C2341   1.404       .  A
C2340      H2345   1.083       .  S
C2341      C2342   1.408       .  A
C2342      H2346   1.083       .  S
C2347      C2348   1.404       .  A
C2347      C2352   1.400       .  A
C2347      H2353   1.084       .  S
C2348      C2349   1.403       .  A
C2349      C2350   1.405       .  A
C2349      H2354   1.083       .  S
C2350      C2351   1.408       .  A
C2350      H2355   1.083       .  S
C2351      C2352   1.404       .  A
C2352      H2356   1.083       .  S
C2357      C2358   1.404       .  A
C2357      C2362   1.402       .  A
C2357      H2363   1.083       .  S
C2358      C2359   1.407       .  A
C2359      C2360   1.398       .  A
C2359      H2364   1.083       .  S
C2360      C2361   1.403       .  A
C2360      H2365   1.083       .  S
C2361      C2362   1.408       .  A
C2362      H2366   1.083       .  S
C2367      C2368   1.409       .  A
C2367      C2372   1.399       .  A
C2367      H2373   1.083       .  S
C2368      C2369   1.403       .  A
C2369      C2370   1.397       .  A
C2369      H2374   1.083       .  S
C2370      C2371   1.405       .  A
C2370      H2375   1.083       .  S
C2371      C2372   1.400       .  A
C2372      H2376   1.084       .  S
C2377      C2378   1.404       .  A
C2377      H2383   1.084       .  S
C2379      C2380   1.392       .  A
C2379      H2384   1.083       .  S
C2380      C2381   1.403       .  A
C2380      H2385   1.084       .  S
C2381      C2382   1.402       .  A
C2382      H2386   1.084       .  S
C2387      C2392   1.399       .  A
C2387      H2393   1.083       .  S
C2388      C2389   1.407       .  A
C2389      H2394   1.083       .  S
C2390      C2391   1.404       .  A
C2390      H2395   1.083       .  S
C2391      C2392   1.408       .  A
C2392      H2396   1.083       .  S
C2397      C2398   1.401       .  A
C2397      C2402   1.398       .  A
C2397      H3235   1.084       .  S
C2398      C2399   1.406       .  A
C2399      C2400   1.398       .  A
C2399      H2404   1.083       .  S
C2400      C2401   1.403       .  A
C2400      H2405   1.083       .  S
C2401      C2402   1.408       .  A
C2402      H2406   1.083       .  S
H2403      C3229   1.084   1_545  S
C2407      C2408   1.404       .  A
C2407      C2412   1.398       .  A
C2407      H2413   1.083       .  S
C2408      C3241   1.408   1_545  A
C2409      C3240   1.408       .  A
C2409      C3242   1.400       .  A
C2409      H2414   1.083       .  S
C2410      C3241   1.400   1_545  A
C2410      C2411   1.402       .  A
C2410      H3247   1.084   1_545  S
C2411      C2412   1.406       .  A
C2412      H2416   1.083       .  S
H2415      C3242   1.084       .  S
C2417      C2418   1.404       .  A
C2417      C2422   1.401       .  A
C2417      H2423   1.083       .  S
C2418      C2419   1.408       .  A
C2419      C2420   1.400       .  A
C2419      H2424   1.083       .  S
C2420      C2421   1.404       .  A
C2420      H2425   1.083       .  S
C2421      C2422   1.409       .  A
C2422      H2426   1.083       .  S
C2427      C2428   1.403       .  A
C2427      C2432   1.392       .  A
C2427      H2433   1.084       .  S
C2428      C2429   1.402       .  A
C2429      C2430   1.392       .  A
C2429      H2434   1.084       .  S
C2430      C2431   1.404       .  A
C2430      H2435   1.084       .  S
C2431      C2432   1.403       .  A
C2432      H2436   1.083       .  S
C2437      C3270   1.402       .  A
C2437      C3274   1.400       .  A
C2437      H2443   1.083   1_565  S
C2438      C2515   1.479       .  S
C2438      C3269   1.402       .  A
C2438      C2439   1.410       .  A
C2439      C2440   1.399       .  A
C2439      H2444   1.083       .  S
C2440      C2441   1.399       .  A
C2440      H2445   1.083       .  S
C2441      C2442   1.407       .  A
C2442      C3269   1.400       .  A
C2442      H3278   1.084       .  S
H2446      C3274   1.084   1_545  S
C2447      C2448   1.407       .  A
C2447      C2452   1.404       .  A
C2447      H2453   1.083       .  S
C2448      C2449   1.404       .  A
C2449      C2450   1.399       .  A
C2449      H2454   1.083   1_545  S
C2450      C2451   1.404       .  A
C2450      H2455   1.084   1_545  S
C2451      C2452   1.404       .  A
C2452      H2456   1.083       .  S
C2457      C3290   1.404       .  A
C2457      C2462   1.399       .  A
C2457      H2463   1.083       .  S
C2458      C3289   1.404       .  A
C2458      C2459   1.407       .  A
C2459      C2460   1.402       .  A
C2459      H2464   1.083       .  S
C2460      C2461   1.404       .  A
C2460      H2465   1.083       .  S
C2461      C3294   1.407   1_545  A
C2462      C3293   1.407       .  A
C2462      H2466   1.083       .  S
C2467      C3300   1.407       .  A
C2467      C3304   1.399       .  A
C2467      H2473   1.084       .  S
C2468      C3299   1.407       .  A
C2468      C2469   1.398       .  A
C2469      C2470   1.400       .  A
C2469      H2474   1.083       .  S
C2470      C2471   1.410       .  A
C2470      H2475   1.083       .  S
C2471      C2472   1.401       .  A
C2472      C3299   1.399       .  A
C2472      H3308   1.083       .  S
H2476      C3304   1.083       .  S
C2477      C2482   1.396       .  A
C2477      H2483   1.083       .  S
C2478      C2479   1.407       .  A
C2479      C2480   1.399       .  A
C2479      H2484   1.083       .  S
C2480      H2485   1.083       .  S
C2481      C2482   1.406       .  A
C2482      H2486   1.083       .  S
C2487      C2488   1.403       .  A
C2487      C2492   1.392       .  A
C2487      H2493   1.084       .  S
C2488      C2489   1.401       .  A
C2489      C2490   1.391       .  A
C2489      H2494   1.084       .  S
C2490      C2491   1.404       .  A
C2490      H2495   1.083       .  S
C2491      C2492   1.403       .  A
C2492      H2496   1.083       .  S
Fe2497     O2513   2.051       .  S
Fe2497     O2503   2.074   1_565  S
Fe2497     O2510   2.079       .  S
Fe2497     O2502   2.027       .  S
Fe2497     O2508   1.940       .  S
Fe2498     O2501   2.033       .  S
Fe2498     O2505   2.104       .  S
Fe2498     O2509   2.039       .  S
Fe2498     O2514   2.086       .  S
Fe2498     O2508   1.910       .  S
Fe2499     O2517   2.120       .  S
Fe2499     O2504   2.072       .  S
Fe2499     O2511   2.078       .  S
Fe2499     O2500   2.122       .  S
O2500      C2507   1.283       .  A
O2504      C2516   1.270       .  A
O2505      C2518   1.279       .  A
C2506      O2511   1.270       .  A
C2507      C3300   1.470       .  S
O2509      C2512   1.260       .  A
O2510      C2512   1.266       .  A
C2512      C3320   1.457       .  S
O2513      C2518   1.273       .  A
C2515      O2517   1.282       .  A
C2516      C3280   1.482       .  S
C2518      C3310   1.476       .  S
Fe2519     O2535   2.040       .  S
Fe2519     O2525   2.047       .  S
Fe2519     O2532   2.071       .  S
Fe2519     O2524   2.018       .  S
Fe2519     O2530   1.951       .  S
Fe2520     O2523   2.052       .  S
Fe2520     O2527   2.115       .  S
Fe2520     O2531   2.046       .  S
Fe2520     O2536   2.076       .  S
Fe2520     O2530   1.944       .  S
Fe2521     O2539   2.098       .  S
Fe2521     O2526   2.073       .  S
Fe2521     O2533   2.095       .  S
Fe2521     O2522   2.107       .  S
O2524      C2529   1.263       .  A
O2526      C2538   1.269       .  A
O2527      C2540   1.276       .  A
C2528      O2533   1.272       .  A
C2528      C3283   1.472       .  S
C2529      C3230   1.470       .  S
O2531      C2534   1.268       .  A
O2532      C2534   1.270       .  A
C2534      C3263   1.466       .  S
O2535      C2540   1.263       .  A
C2537      O2539   1.281       .  A
C2537      C3240   1.481       .  S
C2538      C3293   1.481       .  S
C2540      C3250   1.481       .  S
Fe2541     O2557   2.040       .  S
Fe2541     O2547   2.047       .  S
Fe2541     O2554   2.071       .  S
Fe2541     O2546   2.015       .  S
Fe2541     O2552   1.950       .  S
Fe2542     O2545   2.045       .  S
Fe2542     O2549   2.110       .  S
Fe2542     O2553   2.044       .  S
Fe2542     O2558   2.075       .  S
Fe2542     O2552   1.939       .  S
Fe2543     O2561   2.101       .  S
Fe2543     O2548   2.074       .  S
Fe2543     O2555   2.097       .  S
Fe2543     O2544   2.111       .  S
Fe2543     O2552   1.938       .  S
O2544      C2551   1.281       .  A
O2545      C2559   1.274       .  A
O2546      C2551   1.262       .  A
O2547      C2550   1.262       .  A
O2548      C2560   1.269       .  A
O2549      C2562   1.276       .  A
C2550      O2555   1.273       .  A
C2550      C3180   1.472       .  S
C2551      C3170   1.470       .  S
O2553      C2556   1.267       .  A
O2554      C2556   1.270       .  A
C2556      C3210   1.464       .  S
O2557      C2562   1.263       .  A
O2558      C2560   1.269       .  A
C2559      O2561   1.282       .  A
C2559      C3200   1.480       .  S
C2560      C3190   1.480       .  S
C2562      C3220   1.480       .  S
Fe2563     O2579   2.052       .  S
Fe2563     O2569   2.076       .  S
Fe2563     O2576   2.081       .  S
Fe2563     O2568   2.029       .  S
Fe2563     O2574   1.937       .  S
Fe2564     O2567   2.032       .  S
Fe2564     O2571   2.108       .  S
Fe2564     O2575   2.038       .  S
Fe2564     O2574   1.911       .  S
Fe2565     O2583   2.120       .  S
Fe2565     O2577   2.076       .  S
Fe2565     O2566   2.121       .  S
Fe2565     O2574   1.931       .  S
O2566      C2573   1.282       .  A
O2567      C2581   1.266       .  A
O2568      C2573   1.267       .  A
O2569      C2572   1.268       .  A
O2570      C2582   1.270   1_545  A
O2571      C2584   1.280       .  A
C2572      O2577   1.271       .  A
C2572      C3193   1.479       .  S
C2573      C3140   1.471       .  S
O2575      C2578   1.261       .  A
O2576      C2578   1.268       .  A
C2578      C3160   1.458       .  S
O2579      C2584   1.272       .  A
O2580      C2582   1.275       .  A
C2581      O2583   1.282       .  A
C2581      C3303   1.478       .  S
C2582      C3183   1.485       .  S
C2584      C3150   1.479       .  S
Fe2585     O2601   2.052       .  S
Fe2585     O2591   2.076       .  S
Fe2585     O2598   2.082       .  S
Fe2585     O2590   2.030       .  S
Fe2585     O2596   1.937       .  S
Fe2586     O2589   2.032       .  S
Fe2586     O2593   2.108       .  S
Fe2586     O2597   2.038       .  S
Fe2586     O2602   2.093       .  S
Fe2586     O2596   1.911       .  S
Fe2587     O2605   2.122       .  S
Fe2587     O2592   2.068       .  S
Fe2587     O2599   2.078       .  S
Fe2587     O2588   2.122       .  S
Fe2587     O2596   1.930       .  S
O2588      C2595   1.283       .  A
O2589      C2603   1.265       .  A
O2590      C2595   1.268       .  A
O2591      C2594   1.268       .  A
O2592      C2604   1.270       .  A
O2593      C2606   1.280       .  A
C2594      O2599   1.271       .  A
C2594      C3100   1.480       .  S
C2595      C3110   1.472       .  S
O2597      C2600   1.261       .  A
O2598      C2600   1.267       .  A
C2600      C3133   1.458       .  S
O2601      C2606   1.272       .  A
O2602      C2604   1.275       .  A
C2603      O2605   1.282       .  A
C2603      C3080   1.478       .  S
C2604      C3090   1.485       .  S
C2606      C3123   1.479       .  S
Fe2607     O2623   2.041       .  S
Fe2607     O2613   2.050   1_655  S
Fe2607     O2620   2.070       .  S
Fe2607     O2612   2.015       .  S
Fe2607     O2618   1.950       .  S
Fe2608     O2611   2.049       .  S
Fe2608     O2615   2.113       .  S
Fe2608     O2619   2.045       .  S
Fe2608     O2624   2.076       .  S
Fe2608     O2618   1.938       .  S
Fe2609     O2627   2.098       .  S
Fe2609     O2614   2.075       .  S
Fe2609     O2621   2.097       .  S
Fe2609     O2610   2.111       .  S
Fe2609     O2618   1.937       .  S
O2610      C2617   1.281       .  A
O2611      C2625   1.275       .  A
O2612      C2617   1.262       .  A
O2613      C2616   1.263       .  A
O2614      C2626   1.270       .  A
O2615      C2628   1.277       .  A
C2616      O2621   1.273   1_455  A
C2617      C3050   1.469       .  S
O2619      C2622   1.267       .  A
O2620      C2622   1.269       .  A
C2622      C3070   1.465       .  S
O2623      C2628   1.264       .  A
O2624      C2626   1.270       .  A
C2625      O2627   1.280       .  A
C2625      C3173   1.480       .  S
C2626      C3103   1.481       .  S
C2628      C3060   1.481       .  S
Fe2629     O2645   2.049       .  S
Fe2629     O2635   2.077       .  S
Fe2629     O2642   2.085       .  S
Fe2629     O2634   2.029       .  S
Fe2629     O2640   1.935       .  S
Fe2630     O2633   2.033       .  S
Fe2630     O2637   2.109       .  S
Fe2630     O2641   2.037   1_556  S
Fe2630     O2646   2.095       .  S
Fe2630     O2640   1.910   1_556  S
Fe2631     O2649   2.121       .  S
Fe2631     O2636   2.067       .  S
Fe2631     O2643   2.074       .  S
Fe2631     O2632   2.120   1_556  S
Fe2631     O2640   1.929   1_556  S
O2632      C2639   1.282       .  A
O2633      C2647   1.265       .  A
O2634      C2639   1.267       .  A
O2635      C2638   1.269       .  A
O2636      C2648   1.270       .  A
O2637      C2650   1.280   1_556  A
C2638      O2643   1.271   1_554  A
C2638      C3000   1.478       .  S
C2639      C3023   1.468       .  S
O2641      C2644   1.261       .  A
O2642      C2644   1.269       .  A
C2644      C3030   1.459       .  S
O2645      C2650   1.271       .  A
O2646      C2648   1.275       .  A
C2647      O2649   1.281       .  A
C2647      C3113   1.478       .  S
C2648      C3010   1.485       .  S
C2650      C3040   1.478       .  S
Fe2651     O2667   2.042   1_554  S
Fe2651     O2657   2.047       .  S
Fe2651     O2664   2.066       .  S
Fe2651     O2656   2.017       .  S
Fe2651     O2662   1.949   1_554  S
Fe2652     O2655   2.051       .  S
Fe2652     O2659   2.113       .  S
Fe2652     O2663   2.047   1_556  S
Fe2652     O2662   1.939       .  S
Fe2653     O2671   2.098   1_554  S
Fe2653     O2665   2.097   1_554  S
Fe2653     O2654   2.110       .  S
Fe2653     O2662   1.937   1_554  S
O2654      C2661   1.281       .  A
O2655      C2669   1.276       .  A
O2656      C2661   1.263       .  A
O2657      C2660   1.262       .  A
O2658      C2670   1.269       .  A
O2659      C2672   1.277       .  A
C2660      O2665   1.273   1_554  A
C2660      C3013   1.472   1_554  S
C2661      C3243   1.471       .  S
O2663      C2666   1.267       .  A
O2664      C2666   1.268       .  A
C2666      C2990   1.465       .  S
O2667      C2672   1.264       .  A
O2668      C2670   1.269   1_556  A
C2669      O2671   1.281       .  A
C2669      C2970   1.482       .  S
C2670      C3003   1.479       .  S
C2672      C2983   1.481       .  S
Fe2673     O2689   2.054       .  S
Fe2673     O2679   2.075       .  S
Fe2673     O2686   2.079       .  S
Fe2673     O2678   2.031       .  S
Fe2673     O2684   1.939       .  S
Fe2674     O2677   2.033       .  S
Fe2674     O2681   2.107       .  S
Fe2674     O2685   2.039       .  S
Fe2674     O2690   2.091       .  S
Fe2674     O2684   1.912       .  S
Fe2675     O2693   2.120       .  S
Fe2675     O2680   2.067       .  S
Fe2675     O2687   2.075       .  S
Fe2675     O2676   2.122       .  S
Fe2675     O2684   1.931       .  S
O2676      C2683   1.283       .  A
O2677      C2691   1.266       .  A
O2678      C2683   1.268       .  A
O2679      C2682   1.267       .  A
O2680      C2692   1.269       .  A
O2681      C2694   1.280       .  A
C2682      O2687   1.270       .  A
C2682      C2953   1.479       .  S
C2683      C3083   1.472       .  S
O2685      C2688   1.261       .  A
O2686      C2688   1.267       .  A
C2688      C3213   1.458       .  S
O2689      C2694   1.273       .  A
O2690      C2692   1.274       .  A
C2691      O2693   1.282       .  A
C2691      C2940   1.479       .  S
C2692      C2960   1.484       .  S
C2694      C3153   1.480       .  S
Fe2695     O2711   2.040       .  S
Fe2695     O2701   2.051       .  S
Fe2695     O2708   2.070       .  S
Fe2695     O2700   2.013       .  S
Fe2695     O2706   1.949       .  S
Fe2696     O2699   2.047       .  S
Fe2696     O2703   2.113       .  S
Fe2696     O2707   2.045       .  S
Fe2696     O2712   2.078       .  S
Fe2696     O2706   1.935       .  S
Fe2697     O2715   2.098       .  S
Fe2697     O2702   2.072       .  S
Fe2697     O2709   2.095       .  S
Fe2697     O2698   2.114       .  S
Fe2697     O2706   1.935       .  S
O2698      C2705   1.282       .  A
O2699      C2713   1.274       .  A
O2700      C2705   1.262       .  A
O2701      C2704   1.262       .  A
O2703      C2716   1.278       .  A
C2704      O2709   1.272       .  A
C2704      C2963   1.471       .  S
C2705      C2933   1.467       .  S
O2707      C2710   1.266       .  A
O2708      C2710   1.269       .  A
C2710      C3163   1.465       .  S
O2711      C2716   1.265       .  A
C2713      O2715   1.280       .  A
C2713      C3233   1.479       .  S
C2714      C2950   1.480       .  S
C2716      C3223   1.481       .  S
Fe2717     O2733   2.052       .  S
Fe2717     O2730   2.082       .  S
Fe2717     O2728   1.937       .  S
Fe2718     O2721   2.031       .  S
Fe2718     O2725   2.107       .  S
Fe2718     O2729   2.038       .  S
Fe2718     O2734   2.092       .  S
Fe2718     O2728   1.912       .  S
Fe2719     O2737   2.121       .  S
Fe2719     O2724   2.070       .  S
Fe2719     O2731   2.076       .  S
Fe2719     O2720   2.123       .  S
O2720      C2727   1.283       .  A
O2722      C2727   1.268       .  A
O2723      C2726   1.268       .  A
O2724      C2736   1.270       .  A
O2725      C2738   1.279       .  A
C2726      O2731   1.271       .  A
C2726      C2910   1.479       .  S
C2727      C2920   1.470       .  S
O2729      C2732   1.261       .  A
O2730      C2732   1.268       .  A
C2732      C3073   1.459       .  S
O2733      C2738   1.272       .  A
C2735      O2737   1.282   1_545  A
C2735      C3143   1.478       .  S
C2736      C2900   1.484       .  S
C2738      C3120   1.479       .  S
Fe2739     O2755   2.041       .  S
Fe2739     O2752   2.072       .  S
Fe2739     O2744   2.014       .  S
Fe2739     O2750   1.949       .  S
Fe2740     O2747   2.112       .  S
Fe2740     O2751   2.044       .  S
Fe2740     O2756   2.078       .  S
Fe2740     O2750   1.938       .  S
Fe2741     O2759   2.100       .  S
Fe2741     O2746   2.072       .  S
Fe2741     O2753   2.096       .  S
Fe2741     O2742   2.111       .  S
O2742      C2749   1.281       .  A
O2743      C2757   1.274   1_545  A
O2745      C2748   1.263   1_545  A
O2746      C2758   1.269       .  A
O2747      C2760   1.277       .  A
C2748      O2753   1.273       .  A
O2751      C2754   1.267       .  A
O2752      C2754   1.270       .  A
C2754      C3130   1.465       .  S
O2755      C2760   1.264       .  A
C2757      O2759   1.281       .  A
C2757      C2930   1.482       .  S
C2758      C2913   1.481       .  S
C2760      C3063   1.481       .  S
Fe2761     O2777   2.059       .  S
Fe2761     O2767   2.075       .  S
Fe2761     O2774   2.084       .  S
Fe2761     O2766   2.031       .  S
Fe2761     O2772   1.937       .  S
Fe2762     O2765   2.034       .  S
Fe2762     O2769   2.091       .  S
Fe2762     O2773   2.038       .  S
Fe2762     O2778   2.073       .  S
Fe2762     O2772   1.906       .  S
Fe2763     O2781   2.119       .  S
Fe2763     O2768   2.081       .  S
Fe2763     O2775   2.080       .  S
Fe2763     O2764   2.120       .  S
Fe2763     O2772   1.933       .  S
O2764      C2771   1.282       .  A
O2765      C2779   1.267       .  A
O2766      C2771   1.267       .  A
O2767      C2770   1.269       .  A
O2768      C2780   1.271       .  A
O2769      C2782   1.276       .  A
C2770      O2775   1.273       .  A
C2771      C2943   1.470       .  S
O2773      C2776   1.262       .  A
O2774      C2776   1.269       .  A
C2776      C3260   1.457       .  S
O2777      C2782   1.272       .  A
O2778      C2780   1.272       .  A
C2779      O2781   1.282       .  A
C2779      C3020   1.480       .  S
C2780      C2880   1.486       .  S
C2782      C3313   1.477       .  S
Fe2783     O2799   2.042       .  S
Fe2783     O2789   2.044       .  S
Fe2783     O2796   2.057       .  S
Fe2783     O2788   2.005       .  S
Fe2783     O2794   1.936       .  S
Fe2784     O2787   2.047       .  S
Fe2784     O2791   2.123       .  S
Fe2784     O2795   2.054       .  S
Fe2784     O2800   2.083       .  S
Fe2784     O2794   1.923       .  S
Fe2785     O2803   2.100       .  S
Fe2785     O2790   2.076       .  S
Fe2785     O2797   2.116       .  S
Fe2785     O2786   2.129       .  S
Fe2785     O2794   1.931       .  S
O2786      C2793   1.286       .  A
O2787      C2801   1.273       .  A
O2788      C2793   1.264       .  A
O2789      C2792   1.258       .  A
O2790      C2802   1.274       .  A
O2791      C2804   1.282       .  A
C2792      O2797   1.272       .  A
C2792      C2883   1.482       .  S
C2793      C3203   1.465       .  S
O2795      C2798   1.266       .  A
O2796      C2798   1.265       .  A
C2798      C3323   1.465       .  S
O2799      C2804   1.267       .  A
O2800      C2802   1.274       .  A
C2801      O2803   1.280       .  A
C2801      C2870   1.484       .  S
C2802      C2893   1.482       .  S
C2804      C3253   1.483       .  S
Fe2805     O2821   2.042   1_554  S
Fe2805     O2811   2.054       .  S
Fe2805     O2818   2.071       .  S
Fe2805     O2810   2.014       .  S
Fe2805     O2816   1.952       .  S
Fe2806     O2809   2.050       .  S
Fe2806     O2813   2.114       .  S
Fe2806     O2817   2.044   1_556  S
Fe2806     O2822   2.077       .  S
Fe2806     O2816   1.938   1_556  S
Fe2807     O2825   2.095   1_554  S
Fe2807     O2812   2.066       .  S
Fe2807     O2819   2.093   1_554  S
Fe2807     O2808   2.113       .  S
Fe2807     O2816   1.938       .  S
O2808      C2815   1.281       .  A
O2809      C2823   1.274       .  A
O2810      C2815   1.262       .  A
O2811      C2814   1.263       .  A
O2812      C2824   1.268       .  A
O2813      C2826   1.279       .  A
C2814      O2819   1.271   1_554  A
C2814      C2850   1.472   1_554  S
C2815      C2873   1.466       .  S
O2817      C2820   1.265       .  A
O2818      C2820   1.268       .  A
C2820      C3033   1.466       .  S
O2821      C2826   1.266       .  A
O2822      C2824   1.269   1_556  A
C2823      O2825   1.279       .  A
C2823      C3053   1.481       .  S
C2824      C2863   1.467       .  S
C2826      C2980   1.482       .  S
Fe2827     O2843   2.050       .  S
Fe2827     O2833   2.060       .  S
Fe2827     O2840   2.074       .  S
Fe2827     O2832   2.028       .  S
Fe2827     O2838   1.937       .  S
Fe2828     O2831   2.032       .  S
Fe2828     O2835   2.111   1_556  S
Fe2828     O2839   2.042   1_556  S
Fe2828     O2844   2.088       .  S
Fe2828     O2838   1.910   1_556  S
Fe2829     O2847   2.122       .  S
Fe2829     O2834   2.070       .  S
Fe2829     O2841   2.086       .  S
Fe2829     O2830   2.125   1_556  S
Fe2829     O2838   1.932   1_556  S
O2830      C2837   1.284       .  A
O2831      C2845   1.266       .  A
O2832      C2837   1.269       .  A
O2833      C2836   1.265       .  A
O2835      C2848   1.282       .  A
C2836      O2841   1.271   1_554  A
C2836      C2860   1.483       .  S
C2837      C3273   1.469       .  S
O2839      C2842   1.259       .  A
O2840      C2842   1.264       .  A
C2842      C2993   1.457       .  S
O2843      C2848   1.273       .  A
C2845      O2847   1.282       .  A
C2845      C2923   1.481       .  S
C2846      C2853   1.480       .  S
C2848      C3043   1.478       .  S
C2849      C2850   1.404       .  A
C2849      C2854   1.401       .  A
C2849      H2855   1.084       .  S
C2850      C2851   1.404   1_556  A
C2851      C2852   1.403       .  A
C2851      H2856   1.083       .  S
C2852      C2853   1.406   1_554  A
C2852      H2857   1.083       .  S
C2853      C2854   1.404       .  A
C2854      H2858   1.083       .  S
C2859      C2860   1.410       .  A
C2859      C2864   1.395       .  A
C2859      H2865   1.083       .  S
C2860      C2861   1.406   1_554  A
C2861      C2862   1.404       .  A
C2861      H2866   1.083       .  S
C2862      C2863   1.405   1_556  A
C2862      H2867   1.083       .  S
C2863      C2864   1.397       .  A
C2864      H2868   1.084       .  S
C2869      C2870   1.409       .  A
C2869      C2874   1.397       .  A
C2869      H2875   1.083       .  S
C2870      C2871   1.406       .  A
C2871      C2872   1.400       .  A
C2871      H2876   1.083       .  S
C2872      C2873   1.404       .  A
C2872      H2877   1.083       .  S
C2873      C2874   1.401       .  A
C2874      H2878   1.084       .  S
C2879      C2880   1.412       .  A
C2879      C2884   1.416       .  A
C2879      H2885   1.082       .  S
C2880      C2881   1.401       .  A
C2881      C2882   1.384       .  A
C2881      H2886   1.084       .  S
C2882      C2883   1.403       .  A
C2882      H2887   1.080       .  S
C2883      C2884   1.407       .  A
C2884      H2888   1.083       .  S
C2889      C2890   1.407       .  A
C2889      C2894   1.402       .  A
C2889      H2895   1.083       .  S
C2890      C2891   1.404       .  A
C2891      C2892   1.399       .  A
C2891      H2896   1.083       .  S
C2892      C2893   1.407       .  A
C2892      H2897   1.083       .  S
C2893      C2894   1.404       .  A
C2894      H2898   1.083       .  S
C2899      C2900   1.408       .  A
C2899      C2904   1.404       .  A
C2899      H2905   1.083       .  S
C2900      C2901   1.404       .  A
C2901      C2902   1.400       .  A
C2901      H2906   1.083       .  S
C2902      C2903   1.404       .  A
C2903      C2904   1.404       .  A
C2904      H2908   1.083       .  S
C2909      C2910   1.407       .  A
C2909      C2914   1.402       .  A
C2909      H2915   1.083       .  S
C2910      C2911   1.403       .  A
C2911      C2912   1.399       .  A
C2911      H2916   1.083       .  S
C2912      C2913   1.407       .  A
C2912      H2917   1.083       .  S
C2913      C2914   1.404       .  A
C2914      H2918   1.083       .  S
C2919      C2920   1.399       .  A
C2919      C2924   1.400       .  A
C2919      H2925   1.083       .  S
C2920      C2921   1.407       .  A
C2921      C2922   1.401       .  A
C2921      H2926   1.084       .  S
C2922      C2923   1.402       .  A
C2922      H2927   1.083       .  S
C2923      C2924   1.411       .  A
C2924      H2928   1.084       .  S
C2929      C2930   1.409       .  A
C2929      C2934   1.399       .  A
C2929      H2935   1.083   1_565  S
C2930      C2931   1.405       .  A
C2931      C2932   1.399       .  A
C2931      H2936   1.083       .  S
C2932      C2933   1.405       .  A
C2932      H2937   1.083       .  S
C2933      C2934   1.401       .  A
C2934      H2938   1.084       .  S
C2939      C2940   1.410       .  A
C2939      C2944   1.400       .  A
C2939      H2945   1.084       .  S
C2940      C2941   1.402       .  A
C2941      C2942   1.400       .  A
C2941      H2946   1.083       .  S
C2942      C2943   1.407       .  A
C2942      H2947   1.084       .  S
C2943      C2944   1.399       .  A
C2944      H2948   1.083       .  S
C2949      C2950   1.407       .  A
C2949      C2954   1.398       .  A
C2949      H2955   1.083       .  S
C2950      C2951   1.404       .  A
C2951      C2952   1.402       .  A
C2951      H2956   1.083       .  S
C2952      C2953   1.407       .  A
C2952      H2957   1.083       .  S
C2953      C2954   1.403       .  A
C2954      H2958   1.083       .  S
C2959      C2960   1.404       .  A
C2959      C2964   1.399       .  A
C2959      H2965   1.083       .  S
C2960      C2961   1.409       .  A
C2961      C2962   1.404       .  A
C2961      H2966   1.083       .  S
C2962      C2963   1.403       .  A
C2962      H2967   1.083       .  S
C2963      C2964   1.404       .  A
C2964      H2968   1.084       .  S
C2969      C2970   1.404       .  A
C2969      C2974   1.398       .  A
C2969      H2975   1.083       .  S
C2970      C2971   1.409       .  A
C2971      C2972   1.400       .  A
C2971      H2976   1.083       .  S
C2972      C2973   1.402       .  A
C2972      H2977   1.084       .  S
C2973      C2974   1.405       .  A
C2979      C2980   1.404       .  A
C2979      C2984   1.400       .  A
C2979      H2985   1.083       .  S
C2980      C2981   1.408       .  A
C2981      C2982   1.400       .  A
C2981      H2986   1.083       .  S
C2982      C2983   1.404       .  A
C2982      H2987   1.083       .  S
C2983      C2984   1.407       .  A
C2984      H2988   1.083       .  S
C2989      C2990   1.403       .  A
C2989      C2994   1.391       .  A
C2989      H2995   1.083       .  S
C2991      C2992   1.391       .  A
C2991      H2996   1.083       .  S
C2992      C2993   1.402       .  A
C2992      H2997   1.084       .  S
C2994      H2998   1.084       .  S
C2999      C3000   1.408       .  A
C2999      C3004   1.402       .  A
C2999      H3005   1.083       .  S
C3000      C3001   1.403   1_554  A
C3001      C3002   1.398       .  A
C3001      H3006   1.083       .  S
C3002      C3003   1.406   1_556  A
C3002      H3007   1.083       .  S
C3003      C3004   1.403       .  A
C3004      H3008   1.083       .  S
C3009      C3010   1.404       .  A
C3009      C3014   1.399       .  A
C3009      H3015   1.083       .  S
C3010      C3011   1.408   1_556  A
C3011      C3012   1.404       .  A
C3011      H3016   1.083       .  S
C3012      C3013   1.403   1_554  A
C3012      H3017   1.083       .  S
C3013      C3014   1.404       .  A
C3014      H3018   1.084       .  S
C3019      C3020   1.411       .  A
C3019      C3024   1.399       .  A
C3019      H3025   1.083       .  S
C3020      C3021   1.402       .  A
C3021      C3022   1.399       .  A
C3021      H3026   1.083       .  S
C3022      C3023   1.406       .  A
C3022      H3027   1.084       .  S
C3023      C3024   1.399       .  A
C3024      H3028   1.083       .  S
C3029      C3030   1.404       .  A
C3029      C3034   1.393       .  A
C3029      H3035   1.084       .  S
C3030      C3031   1.402       .  A
C3031      C3032   1.392       .  A
C3031      H3036   1.084       .  S
C3032      C3033   1.404       .  A
C3032      H3037   1.084       .  S
C3033      C3034   1.402       .  A
C3034      H3038   1.083       .  S
C3039      C3040   1.405       .  A
C3039      C3044   1.399       .  A
C3039      H3045   1.083       .  S
C3040      C3041   1.406       .  A
C3041      C3042   1.398       .  A
C3041      H3046   1.083       .  S
C3042      C3043   1.405       .  A
C3042      H3047   1.083       .  S
C3043      C3044   1.406       .  A
C3044      H3048   1.083       .  S
C3049      C3050   1.402       .  A
C3049      C3054   1.399       .  A
C3049      H3055   1.084       .  S
C3050      C3051   1.406       .  A
C3051      C3052   1.398       .  A
C3051      H3056   1.083       .  S
C3052      C3053   1.404       .  A
C3052      H3057   1.083       .  S
C3053      C3054   1.409       .  A
C3054      H3058   1.083       .  S
C3059      C3064   1.400       .  A
C3059      H3065   1.083       .  S
C3060      C3061   1.404       .  A
C3061      C3062   1.400       .  A
C3061      H3066   1.083       .  S
C3062      H3067   1.083       .  S
C3063      C3064   1.404       .  A
C3064      H3068   1.083       .  S
C3069      C3070   1.403       .  A
C3069      C3074   1.392       .  A
C3069      H3075   1.083       .  S
C3070      C3071   1.404       .  A
C3071      C3072   1.392       .  A
C3071      H3076   1.083       .  S
C3072      C3073   1.402       .  A
C3072      H3077   1.084       .  S
C3073      C3074   1.403       .  A
C3074      H3078   1.084       .  S
C3079      C3080   1.401       .  A
C3079      C3084   1.399       .  A
C3079      H3085   1.083       .  S
C3080      C3081   1.410       .  A
C3081      C3082   1.401       .  A
C3081      H3086   1.083       .  S
C3082      C3083   1.399       .  A
C3082      H3087   1.083       .  S
C3083      C3084   1.408       .  A
C3084      H3088   1.084       .  S
C3089      C3090   1.408       .  A
C3089      C3094   1.404       .  A
C3089      H3095   1.083       .  S
C3090      C3091   1.404       .  A
C3091      C3092   1.400       .  A
C3091      H3096   1.083       .  S
C3092      C3093   1.404       .  A
C3092      H3097   1.084       .  S
C3093      C3094   1.403       .  A
C3094      H3098   1.083       .  S
C3099      C3100   1.403       .  A
C3099      C3104   1.398       .  A
C3099      H3105   1.083       .  S
C3100      C3101   1.408       .  A
C3101      C3102   1.402       .  A
C3101      H3106   1.083       .  S
C3102      C3103   1.404       .  A
C3102      H3107   1.083       .  S
C3103      C3104   1.407       .  A
C3104      H3108   1.083       .  S
C3109      C3110   1.399       .  A
C3109      C3114   1.401       .  A
C3109      H3115   1.083       .  S
C3110      C3111   1.407       .  A
C3111      C3112   1.399       .  A
C3111      H3116   1.084       .  S
C3112      C3113   1.401       .  A
C3112      H3117   1.083       .  S
C3113      C3114   1.410       .  A
C3114      H3118   1.083       .  S
C3119      C3120   1.405       .  A
C3119      C3124   1.399       .  A
C3119      H3125   1.083       .  S
C3120      C3121   1.405       .  A
C3121      C3122   1.399       .  A
C3121      H3126   1.083       .  S
C3122      C3123   1.406       .  A
C3122      H3127   1.083       .  S
C3123      C3124   1.405       .  A
C3124      H3128   1.083       .  S
C3129      C3130   1.404       .  A
C3129      C3134   1.392       .  A
C3129      H3135   1.084       .  S
C3130      C3131   1.402       .  A
C3131      C3132   1.392       .  A
C3131      H3136   1.083       .  S
C3132      C3133   1.403       .  A
C3132      H3137   1.084       .  S
C3133      C3134   1.402       .  A
C3134      H3138   1.084       .  S
C3139      C3140   1.399       .  A
C3139      C3144   1.400       .  A
C3139      H3145   1.083       .  S
C3140      C3141   1.407       .  A
C3141      C3142   1.399       .  A
C3141      H3146   1.084       .  S
C3142      H3147   1.083       .  S
C3144      H3148   1.083       .  S
C3149      C3150   1.405       .  A
C3149      H3155   1.083       .  S
C3151      C3152   1.399       .  A
C3151      H3156   1.083       .  S
C3152      C3153   1.405       .  A
C3152      H3157   1.083       .  S
C3153      C3154   1.406       .  A
C3154      H3158   1.083       .  S
C3159      H3165   1.084       .  S
C3161      C3162   1.392       .  A
C3162      H3167   1.084       .  S
C3163      C3164   1.402       .  A
C3164      H3168   1.083       .  S
C3169      C3170   1.402       .  A
C3169      C3174   1.399       .  A
C3169      H3175   1.084       .  S
C3170      C3171   1.406       .  A
C3171      C3172   1.398       .  A
C3171      H3176   1.083       .  S
C3172      C3173   1.404       .  A
C3172      H3177   1.083       .  S
C3173      C3174   1.408       .  A
C3174      H3178   1.083       .  S
C3179      C3180   1.404       .  A
C3179      C3184   1.400       .  A
C3179      H3185   1.084       .  S
C3180      C3181   1.403       .  A
C3181      C3182   1.405       .  A
C3181      H3186   1.083       .  S
C3182      C3183   1.408       .  A
C3182      H3187   1.083       .  S
C3183      C3184   1.404       .  A
C3184      H3188   1.083       .  S
C3189      C3190   1.404       .  A
C3189      C3194   1.402       .  A
C3189      H3195   1.083       .  S
C3190      C3191   1.407       .  A
C3191      C3192   1.398       .  A
C3191      H3196   1.083       .  S
C3192      C3193   1.403       .  A
C3192      H3197   1.083       .  S
C3193      C3194   1.408       .  A
C3194      H3198   1.083       .  S
C3199      C3200   1.409       .  A
C3199      C3204   1.399       .  A
C3199      H3205   1.083       .  S
C3200      C3201   1.403       .  A
C3201      C3202   1.397       .  A
C3201      H3206   1.083       .  S
C3202      C3203   1.405       .  A
C3202      H3207   1.083       .  S
C3203      C3204   1.400       .  A
C3204      H3208   1.084       .  S
C3209      C3210   1.404       .  A
C3209      H3215   1.084       .  S
C3211      C3212   1.392       .  A
C3211      H3216   1.083       .  S
C3212      C3213   1.403       .  A
C3212      H3217   1.084       .  S
C3213      C3214   1.402       .  A
C3214      H3218   1.084       .  S
C3219      C3224   1.399       .  A
C3219      H3225   1.083       .  S
C3220      C3221   1.407       .  A
C3221      H3226   1.083       .  S
C3222      C3223   1.404       .  A
C3222      H3227   1.083       .  S
C3223      C3224   1.408       .  A
C3224      H3228   1.083       .  S
C3229      C3230   1.401       .  A
C3229      C3234   1.398       .  A
C3230      C3231   1.406       .  A
C3231      C3232   1.398       .  A
C3231      H3236   1.083       .  S
C3232      C3233   1.403       .  A
C3232      H3237   1.083       .  S
C3233      C3234   1.408       .  A
C3234      H3238   1.083       .  S
C3239      C3240   1.404       .  A
C3239      C3244   1.398       .  A
C3239      H3245   1.083       .  S
C3241      H3246   1.083       .  S
C3242      C3243   1.402       .  A
C3243      C3244   1.406       .  A
C3244      H3248   1.083       .  S
C3249      C3250   1.404       .  A
C3249      C3254   1.401       .  A
C3249      H3255   1.083       .  S
C3250      C3251   1.408       .  A
C3251      C3252   1.400       .  A
C3251      H3256   1.083       .  S
C3252      C3253   1.404       .  A
C3252      H3257   1.083       .  S
C3253      C3254   1.409       .  A
C3254      H3258   1.083       .  S
C3259      C3260   1.403       .  A
C3259      C3264   1.392       .  A
C3259      H3265   1.084       .  S
C3260      C3261   1.402       .  A
C3261      C3262   1.392       .  A
C3261      H3266   1.084       .  S
C3262      C3263   1.404       .  A
C3262      H3267   1.084       .  S
C3263      C3264   1.403       .  A
C3264      H3268   1.083       .  S
C3269      H3275   1.083       .  S
C3270      C3271   1.410       .  A
C3271      C3272   1.399       .  A
C3271      H3276   1.083       .  S
C3272      C3273   1.399       .  A
C3272      H3277   1.083       .  S
C3273      C3274   1.407       .  A
C3279      C3280   1.407       .  A
C3279      C3284   1.404       .  A
C3279      H3285   1.083       .  S
C3280      C3281   1.404       .  A
C3281      C3282   1.399       .  A
C3281      H3286   1.083       .  S
C3282      C3283   1.404       .  A
C3282      H3287   1.084       .  S
C3283      C3284   1.404       .  A
C3284      H3288   1.083       .  S
C3289      C3294   1.399   1_545  A
C3289      H3295   1.083       .  S
C3290      C3291   1.407       .  A
C3291      C3292   1.402       .  A
C3291      H3296   1.083       .  S
C3292      C3293   1.404       .  A
C3292      H3297   1.083       .  S
C3294      H3298   1.083       .  S
C3299      H3305   1.084       .  S
C3300      C3301   1.398       .  A
C3301      C3302   1.400       .  A
C3301      H3306   1.083       .  S
C3302      C3303   1.410       .  A
C3302      H3307   1.083       .  S
C3303      C3304   1.401       .  A
C3309      C3314   1.396       .  A
C3309      H3315   1.083       .  S
C3310      C3311   1.407       .  A
C3311      C3312   1.399       .  A
C3311      H3316   1.083       .  S
C3312      H3317   1.083       .  S
C3313      C3314   1.406       .  A
C3314      H3318   1.083       .  S
C3319      C3320   1.403       .  A
C3319      C3324   1.392       .  A
C3319      H3325   1.084       .  S
C3320      C3321   1.401       .  A
C3321      C3322   1.391       .  A
C3321      H3326   1.084       .  S
C3322      C3323   1.404       .  A
C3322      H3327   1.083       .  S
C3323      C3324   1.403       .  A
C3324      H3328   1.083       .  S
