geometry optimzed in LAMMPS
_audit_creation_date              2020-12-01 
_audit_creation_method            'lammps2cif' 
_symmetry_space_group_name_H-M    'P1' 
_symmetry_Int_Tables_number       1 
_symmetry_cell_setting            triclinic 
loop_ 
_symmetry_equiv_pos_as_xyz 
  x,y,z 
_cell_length_a                    73.53793569 
_cell_length_b                    73.48915499772801 
_cell_length_c                    39.56695325410401 
_cell_angle_alpha                 90.05812445413552 
_cell_angle_beta                  89.89027671301517 
_cell_angle_gamma                 90.13358787017707 
loop_ 
_atom_site_label 
_atom_site_type_symbol 
_atom_site_fract_x 
_atom_site_fract_y 
_atom_site_fract_z 
_atom_site_charge 
Zr1        Zr  0.89885372  0.38547248  0.40308100     2.17500
O2          O  0.91751261  0.40978217  0.37913188    -0.51300
O3          O  0.89499970  0.37746649  0.34316191    -0.74600
O4          O  0.93134146  0.37815806  0.40126100    -0.81300
O5          O  0.85998073  0.41965124  0.41824687    -0.83100
O6          O  0.93648763  0.35336161  0.43402728    -0.78700
O7          O  0.88860716  0.41689764  0.39714158    -0.90300
O8          O  0.87620504  0.35308389  0.33958127    -0.76300
O9          O  0.89807763  0.35305352  0.40416253    -0.85800
O10         O  0.86778979  0.37731543  0.39427155    -0.85500
O11         O  0.90966184  0.37711831  0.45850867    -0.72200
O12         O  0.88194379  0.39861131  0.44883488    -0.84400
Zr13       Zr  0.85990115  0.34899650  0.49617628     2.26400
Zr14       Zr  0.90787856  0.34446739  0.45964788     2.06300
Zr15       Zr  0.85104104  0.39019667  0.44040146     2.10000
Zr16       Zr  0.86709346  0.34489400  0.39606249     1.78800
O17         O  0.83575315  0.41242010  0.47610459    -0.93200
O18         O  0.88321723  0.31786655  0.37680472    -0.41000
O19         O  0.84976414  0.35777252  0.44112477    -0.77600
O20         O  0.87692439  0.33514470  0.45068433    -0.96300
O21         O  0.89082941  0.35751182  0.50495890    -0.89600
O22         O  0.86078526  0.38145027  0.49580869    -0.92500
C23         C  0.88630513  0.36529782  0.32614187     1.01300
C24         C  0.87433313  0.42623731  0.40429537     1.14200
C25         C  0.94190088  0.36620057  0.41444143     1.05000
O26         O  0.92009844  0.31831859  0.42946268    -0.94600
O27         O  0.90212340  0.31757170  0.49382912    -0.90400
O28         O  0.87307664  0.31991944  0.51322521    -0.83500
C29         C  0.88836695  0.31159168  0.51053259     1.11600
O30         O  0.90793217  0.41877720  0.49797082    -0.96600
Zr31       Zr  0.89191076  0.38980690  0.50347485     1.88900
O32         O  0.86322340  0.35769003  0.55559906    -0.73200
O33         O  0.93075512  0.34355433  0.50409879    -0.52500
O34         O  0.92138573  0.38956132  0.53159397    -0.97200
O35         O  0.87549703  0.41463091  0.53081178    -0.54400
O36         O  0.88720499  0.37711883  0.55865782    -0.73700
C37         C  0.87554637  0.36639123  0.57202465     0.98600
O38         O  0.83736122  0.32888605  0.52193458    -0.62600
O39         O  0.83027212  0.39530819  0.39338870    -0.57400
O40         O  0.82682935  0.35235120  0.48714250    -0.94100
O41         O  0.82182010  0.37831731  0.45731008    -0.92500
O42         O  0.83950465  0.34710535  0.36242207    -0.92800
O43         O  0.84664119  0.31882034  0.39863681    -0.91600
C44         C  0.81629175  0.36403930  0.47278787     1.17400
H45         H  0.86326435  0.38196781  0.37308846     0.33400
H46         H  0.87587336  0.32205516  0.45085439     0.44200
H47         H  0.85293166  0.38636138  0.51313235     0.37800
H48         H  0.92194531  0.38132655  0.46213831     0.34200
H49         H  0.87495614  0.31199392  0.36034818     0.26000
H50         H  0.93976554  0.33449821  0.49619537     0.32000
H51         H  0.91919556  0.39518650  0.55398724     0.37900
H52         H  0.83038621  0.35247888  0.37792031     0.32300
H53         H  0.82062717  0.40323282  0.40275702     0.31200
H54         H  0.82594474  0.41743228  0.46178889     0.32900
H55         H  0.86774272  0.40882721  0.54822649     0.31900
H56         H  0.84782571  0.31412091  0.42196366     0.35900
H57         H  0.83783990  0.31744117  0.50872171     0.28600
H58         H  0.92376057  0.40439511  0.35936103     0.32800
H59         H  0.90941537  0.42352479  0.52123771     0.35700
H60         H  0.83696820  0.40320166  0.37735016     0.28300
H61         H  0.84227775  0.32569034  0.54443666     0.41200
H62         H  0.90972386  0.30978529  0.42736829     0.31200
H63         H  0.89345082  0.32252381  0.36297841     0.38800
H64         H  0.86689435  0.41905975  0.51347390     0.30700
H65         H  0.93717518  0.35538487  0.50259996     0.30700
H66         H  0.92723533  0.41225953  0.39581995     0.31000
Zr67       Zr  0.90043679  0.38466837  0.90057923     2.17500
O68         O  0.92048209  0.40790747  0.87684812    -0.51300
O69         O  0.89506258  0.37709070  0.84125362    -0.74600
O70         O  0.93259127  0.37531754  0.89763914    -0.81300
O71         O  0.86235634  0.41984592  0.91705228    -0.83100
O72         O  0.93712236  0.35016733  0.92992142    -0.78700
O73         O  0.88987160  0.41618489  0.89159895    -0.90300
O74         O  0.87857047  0.35098007  0.83882078    -0.76300
O75         O  0.89851575  0.35217126  0.90139822    -0.85800
O76         O  0.86909276  0.37731853  0.89343090    -0.85500
O77         O  0.91157027  0.37534125  0.95522030    -0.72200
O78         O  0.88480565  0.39846113  0.94722739    -0.84400
Zr79       Zr  0.86157261  0.34923015  0.99602922     2.26400
Zr80       Zr  0.90846463  0.34271213  0.95637885     2.06300
Zr81       Zr  0.85350998  0.39072509  0.94053923     2.10000
Zr82       Zr  0.86725828  0.34490079  0.89490702     1.78800
O83         O  0.83895956  0.41153681  0.98014024    -0.93200
O84         O  0.87908547  0.31541486  0.87734913    -0.41000
O85         O  0.85181845  0.35846509  0.94122725    -0.77600
O86         O  0.87710249  0.33444925  0.94945562    -0.96300
O87         O  0.89287374  0.35646823  0.00275941    -0.89600
O88         O  0.86368326  0.38165627  0.99553671    -0.92500
C89         C  0.88736795  0.36404313  0.82500247     1.01300
C90         C  0.87595983  0.42588467  0.90004490     1.14200
C91         C  0.94280208  0.36280260  0.91022806     1.05000
O92         O  0.91708972  0.31609017  0.92335624    -0.94600
O93         O  0.90313065  0.31708499  0.99408754    -0.90400
O94         O  0.87415890  0.31996778  0.01305395    -0.83500
C95         C  0.88938756  0.31145692  0.01124909     1.11600
O96         O  0.91501660  0.41528725  0.99657190    -0.96600
Zr97       Zr  0.89529582  0.38868767  0.00118303     1.88900
O98         O  0.86567828  0.35885682  0.05506715    -0.73200
O99         O  0.93291313  0.33958395  0.99737547    -0.52500
O100        O  0.92448135  0.38390490  0.02890182    -0.97200
O101        O  0.88139440  0.41574706  0.02571248    -0.54400
O102        O  0.88913892  0.37897739  0.05791698    -0.73700
C103        C  0.87736309  0.36847179  0.07143730     0.98600
O104        O  0.83873871  0.33168141  0.02685437    -0.62600
O105        O  0.83173898  0.39914534  0.89679837    -0.57400
O106        O  0.82863606  0.35127049  0.98375132    -0.94100
O107        O  0.82451265  0.37632985  0.95098366    -0.92500
O108        O  0.84030117  0.35160804  0.86146903    -0.92800
O109        O  0.84315100  0.32211208  0.89528103    -0.91600
C110        C  0.81858264  0.36208804  0.96618956     1.17400
H111        H  0.86439631  0.38209778  0.87247446     0.33400
H112        H  0.87551404  0.32140529  0.94998367     0.44200
H113        H  0.85643366  0.38692589  0.01339701     0.37800
H114        H  0.92407615  0.37897085  0.95831678     0.34200
H115        H  0.87230060  0.31238627  0.85648683     0.26000
H116        H  0.94175345  0.33126644  0.98653909     0.32000
H117        H  0.92325012  0.37210392  0.04075622     0.37900
H118        H  0.84256176  0.34590907  0.83916736     0.32300
H119        H  0.82603414  0.41051020  0.90502243     0.31200
H120        H  0.83071562  0.41898944  0.96609925     0.32900
H121        H  0.87335518  0.41122860  0.04397835     0.31900
H122        H  0.84149922  0.31902852  0.91944659     0.35900
H123        H  0.83810974  0.31975944  0.01521221     0.28600
H124        H  0.92678163  0.40209418  0.85753732     0.32800
H125        H  0.91817868  0.41864715  0.02008638     0.35700
H126        H  0.83909561  0.40295326  0.87704523     0.28300
H127        H  0.84426741  0.32897360  0.04908157     0.41200
H128        H  0.90806451  0.30661745  0.92940781     0.31200
H129        H  0.89160573  0.31798823  0.86942912     0.38800
H130        H  0.87298080  0.42020349  0.00807348     0.30700
H131        H  0.93910377  0.35155665  0.99762590     0.30700
H132        H  0.93004417  0.41004393  0.89400152     0.31000
Zr133      Zr  0.90121048  0.11492303  0.23562876     2.17500
O134        O  0.92041594  0.09224963  0.26297242    -0.51300
O135        O  0.89580207  0.12235496  0.29516183    -0.74600
O136        O  0.93359483  0.12351949  0.23730298    -0.81300
O137        O  0.86384869  0.07956514  0.21929612    -0.83100
O138        O  0.93799763  0.14907244  0.20599265    -0.78700
O139        O  0.89198935  0.08298519  0.24217990    -0.90300
O140        O  0.87684315  0.14652645  0.29880932    -0.76300
O141        O  0.89923587  0.14735141  0.23527983    -0.85800
O142        O  0.86982479  0.12193049  0.24380200    -0.85500
O143        O  0.91216378  0.12418784  0.18069218    -0.72200
O144        O  0.88523207  0.10132935  0.18900177    -0.84400
Zr145      Zr  0.86209477  0.15042380  0.14195844     2.26400
Zr146      Zr  0.90923140  0.15682370  0.18021063     2.06300
Zr147      Zr  0.85396925  0.10863204  0.19707866     2.10000
Zr148      Zr  0.86785930  0.15431496  0.24241847     1.78800
O149        O  0.83915372  0.08537472  0.16293131    -0.93200
O150        O  0.88181107  0.18213896  0.26382517    -0.41000
O151        O  0.85175560  0.14097090  0.19651289    -0.77600
O152        O  0.87789041  0.16488834  0.18819945    -0.96300
O153        O  0.89333312  0.14337994  0.13392745    -0.89600
O154        O  0.86395951  0.11798763  0.14207584    -0.92500
C155        C  0.88657763  0.13408453  0.31210980     1.01300
C156        C  0.87800579  0.07331287  0.23422385     1.14200
C157        C  0.94378491  0.13609234  0.22470263     1.05000
O158        O  0.91775484  0.18432233  0.21074715    -0.94600
O159        O  0.90344409  0.18288001  0.14389977    -0.90400
O160        O  0.87451214  0.17979707  0.12457292    -0.83500
C161        C  0.88967859  0.18843235  0.12685694     1.11600
O162        O  0.91035681  0.08161400  0.13871313    -0.96600
Zr163      Zr  0.89544990  0.11115349  0.13479438     1.88900
O164        O  0.86578591  0.14139889  0.08267094    -0.73200
O165        O  0.93359582  0.15930434  0.13857535    -0.52500
O166        O  0.92613367  0.11303020  0.11155544    -0.97200
O167        O  0.88077414  0.08739433  0.10130061    -0.54400
O168        O  0.89156217  0.12458606  0.07995486    -0.73700
C169        C  0.87896166  0.13398300  0.06632025     0.98600
O170        O  0.83866908  0.16954981  0.11683298    -0.62600
O171        O  0.83414737  0.10188925  0.24491242    -0.57400
O172        O  0.82930149  0.14657855  0.15122874    -0.94100
O173        O  0.82449057  0.12020542  0.17998294    -0.92500
O174        O  0.83920210  0.14936472  0.27209882    -0.92800
O175        O  0.84573819  0.17892561  0.24323029    -0.91600
C176        C  0.81884214  0.13464952  0.16511976     1.17400
H177        H  0.86522046  0.11693155  0.26470224     0.33400
H178        H  0.87636119  0.17793106  0.18787688     0.44200
H179        H  0.85643307  0.11279325  0.12455382     0.37800
H180        H  0.92461349  0.12050677  0.17725496     0.34200
H181        H  0.87484719  0.18510324  0.28454880     0.26000
H182        H  0.94298558  0.16705663  0.14931464     0.32000
H183        H  0.92483562  0.10977836  0.08738788     0.37900
H184        H  0.84199617  0.14061939  0.29036978     0.32300
H185        H  0.82319521  0.09623774  0.23482271     0.31200
H186        H  0.83065161  0.07921150  0.17864617     0.32900
H187        H  0.87312842  0.09379661  0.08455118     0.31900
H188        H  0.84961175  0.18723717  0.22489771     0.35900
H189        H  0.83904580  0.18114156  0.12961338     0.28600
H190        H  0.92634722  0.09860295  0.28209491     0.32800
H191        H  0.91492161  0.07888419  0.11570136     0.35700
H192        H  0.82995318  0.11392557  0.25296319     0.28300
H193        H  0.84319626  0.17265720  0.09397881     0.41200
H194        H  0.92199994  0.18000034  0.23305996     0.31200
H195        H  0.89387993  0.17833345  0.27227030     0.38800
H196        H  0.87198610  0.08160035  0.11694619     0.30700
H197        H  0.93909902  0.14703300  0.13752244     0.30700
H198        H  0.93034529  0.08952136  0.24681171     0.31000
Zr199      Zr  0.90121863  0.11780137  0.73768947     2.17500
O200        O  0.92018251  0.09440874  0.76340479    -0.51300
O201        O  0.89647634  0.12732818  0.79633033    -0.74600
O202        O  0.93364923  0.12604629  0.73878854    -0.81300
O203        O  0.86112250  0.08409397  0.73260412    -0.83100
O204        O  0.93848485  0.15021708  0.70415867    -0.78700
O205        O  0.89013867  0.08728930  0.75112371    -0.90300
O206        O  0.87782468  0.15184364  0.79757942    -0.76300
O207        O  0.90019381  0.15013549  0.73300794    -0.85800
O208        O  0.87010730  0.12589898  0.74503335    -0.85500
O209        O  0.91219741  0.12449047  0.68162456    -0.72200
O210        O  0.88477993  0.10244929  0.69364997    -0.84400
Zr211      Zr  0.86282186  0.15077604  0.64073918     2.26400
Zr212      Zr  0.91019863  0.15702428  0.67663912     2.06300
Zr213      Zr  0.85379546  0.11114224  0.70051167     2.10000
Zr214      Zr  0.86912347  0.15818843  0.74004408     1.78800
O215        O  0.84152042  0.08548978  0.66884495    -0.93200
O216        O  0.88386984  0.18645160  0.75708689    -0.41000
O217        O  0.85236844  0.14346335  0.69633904    -0.77600
O218        O  0.87931219  0.16637427  0.68467918    -0.96300
O219        O  0.89367913  0.14219885  0.63266974    -0.89600
O220        O  0.86374035  0.11838242  0.64451212    -0.92500
C221        C  0.88753537  0.13973667  0.81212852     1.01300
C222        C  0.87529695  0.07814596  0.74782215     1.14200
C223        C  0.94402671  0.13799107  0.72470622     1.05000
O224        O  0.92231024  0.18439132  0.70307387    -0.94600
O225        O  0.90488108  0.18261057  0.63908139    -0.90400
O226        O  0.87597921  0.17918164  0.62045784    -0.83500
C227        C  0.89107710  0.18794746  0.62197053     1.11600
O228        O  0.91416358  0.08331248  0.64541140    -0.96600
Zr229      Zr  0.89487447  0.10998646  0.63812598     1.88900
O230        O  0.86579081  0.14012044  0.58256850    -0.73200
O231        O  0.93317691  0.15573830  0.63225224    -0.52500
O232        O  0.92361086  0.11230371  0.60758917    -0.97200
O233        O  0.88008013  0.08227157  0.61799992    -0.54400
O234        O  0.88700297  0.11783247  0.58110272    -0.73700
C235        C  0.87616533  0.12896588  0.56666034     0.98600
O236        O  0.84060758  0.17104659  0.61478229    -0.62600
O237        O  0.83041293  0.10919218  0.74409595    -0.57400
O238        O  0.83004315  0.14757295  0.65029599    -0.94100
O239        O  0.82490588  0.12127727  0.67910105    -0.92500
O240        O  0.84132498  0.15618244  0.77332333    -0.92800
O241        O  0.84797254  0.18328604  0.73217846    -0.91600
C242        C  0.81949808  0.13568257  0.66402853     1.17400
H243        H  0.86542181  0.12183189  0.76655722     0.33400
H244        H  0.87811677  0.17941998  0.68299820     0.44200
H245        H  0.85597339  0.11285759  0.62771430     0.37800
H246        H  0.92456088  0.12039388  0.67868223     0.34200
H247        H  0.87566036  0.19177910  0.77428210     0.26000
H248        H  0.94286937  0.16415996  0.63986410     0.32000
H249        H  0.92142252  0.10626102  0.58558723     0.37900
H250        H  0.83321112  0.14819696  0.75992203     0.32300
H251        H  0.82241856  0.09907676  0.73679879     0.31200
H252        H  0.83140956  0.08083525  0.68298124     0.32900
H253        H  0.86937062  0.08631721  0.60492211     0.31900
H254        H  0.84087610  0.17990181  0.71186189     0.35900
H255        H  0.84147217  0.18267520  0.62737599     0.28600
H256        H  0.92592666  0.10025943  0.78324023     0.32800
H257        H  0.91517925  0.07764162  0.62277192     0.35700
H258        H  0.83664006  0.10456133  0.76449196     0.28300
H259        H  0.84530408  0.17379106  0.59186871     0.41200
H260        H  0.91144956  0.19166313  0.70901053     0.31200
H261        H  0.89473716  0.18261512  0.76995583     0.38800
H262        H  0.87492886  0.07657691  0.63857669     0.30700
H263        H  0.93863506  0.14349211  0.63432208     0.30700
H264        H  0.93024491  0.09208474  0.74731445     0.31000
Zr265      Zr  0.34791178  0.35773809  0.11323429     2.17500
O266        O  0.32432601  0.33852196  0.13829111    -0.51300
O267        O  0.35747849  0.35975996  0.17251688    -0.74600
O268        O  0.35276017  0.32469212  0.10621927    -0.81300
O269        O  0.31726500  0.40023360  0.11599356    -0.83100
O270        O  0.37940300  0.32004090  0.07820306    -0.78700
O271        O  0.31841973  0.37015460  0.12934527    -0.90300
O272        O  0.38008088  0.38071575  0.17686027    -0.76300
O273        O  0.38032093  0.35824749  0.11118145    -0.85800
O274        O  0.35669382  0.38857137  0.12349489    -0.85500
O275        O  0.35551293  0.34837607  0.05652567    -0.72200
O276        O  0.33369194  0.37599234  0.07020137    -0.84400
Zr277      Zr  0.38413348  0.39696500  0.02077332     2.26400
Zr278      Zr  0.38818013  0.34916103  0.05467241     2.06300
Zr279      Zr  0.34355105  0.40662029  0.07979885     2.10000
Zr280      Zr  0.38897214  0.38913606  0.12056199     1.78800
O281        O  0.31746449  0.41835356  0.04899942    -0.93200
O282        O  0.41505546  0.37247212  0.14231553    -0.41000
O283        O  0.37606331  0.40720356  0.07660564    -0.77600
O284        O  0.39796745  0.37970368  0.06548686    -0.96300
O285        O  0.37452496  0.36659584  0.01033759    -0.89600
O286        O  0.35169037  0.39746530  0.02358087    -0.92500
C287        C  0.36857879  0.36963436  0.18976361     1.01300
C288        C  0.31067360  0.38582007  0.12991634     1.14200
C289        C  0.36500199  0.31432163  0.09309928     1.05000
O290        O  0.41422755  0.33554760  0.08282366    -0.94600
O291        O  0.41598377  0.35550493  0.02305040    -0.90400
O292        O  0.41392159  0.38458965  0.00460769    -0.83500
C293        C  0.42262998  0.36951657  0.00797117     1.11600
O294        O  0.31475002  0.34838381  0.01913665    -0.96600
Zr295      Zr  0.34207652  0.36702648  0.01420289     1.88900
O296        O  0.37547052  0.39358290  0.96141112    -0.73200
O297        O  0.38802663  0.32749773  0.00805458    -0.52500
O298        O  0.34149819  0.33920682  0.98070509    -0.97200
O299        O  0.31559810  0.38433511  0.99581757    -0.54400
O300        O  0.35049815  0.37554146  0.95758461    -0.73700
C301        C  0.36319867  0.38511146  0.94439746     0.98600
O302        O  0.40536739  0.41982650  0.99936286    -0.62600
O303        O  0.34284780  0.43075100  0.12202832    -0.57400
O304        O  0.37835833  0.42951313  0.02309651    -0.94100
O305        O  0.35431045  0.43549940  0.05754912    -0.92500
O306        O  0.38812607  0.41760120  0.15206426    -0.92800
O307        O  0.41646980  0.40757134  0.11664007    -0.91600
C308        C  0.36716399  0.44045419  0.03751671     1.17400
H309        H  0.35225348  0.39279278  0.14509578     0.33400
H310        H  0.41104113  0.38073943  0.06559591     0.44200
H311        H  0.34684918  0.40576737  0.00699116     0.37800
H312        H  0.35103824  0.33641208  0.05091415     0.34200
H313        H  0.41955289  0.37992906  0.16142277     0.26000
H314        H  0.39748783  0.31850100  0.01402657     0.32000
H315        H  0.35386067  0.33828196  0.97091649     0.37900
H316        H  0.37910389  0.42516635  0.14002863     0.32300
H317        H  0.33053258  0.43606392  0.12017264     0.31200
H318        H  0.31554280  0.43070692  0.05834248     0.32900
H319        H  0.30924683  0.37629078  0.97957102     0.31900
H320        H  0.41617994  0.41274017  0.09354224     0.35900
H321        H  0.41642353  0.41883397  0.01349358     0.28600
H322        H  0.33060401  0.33021410  0.15411036     0.32800
H323        H  0.31708435  0.34025865  0.03859241     0.35700
H324        H  0.34288632  0.42444408  0.14410962     0.28300
H325        H  0.40908030  0.41561825  0.97658965     0.41200
H326        H  0.41155005  0.33667629  0.10726200     0.31200
H327        H  0.40982940  0.36151679  0.15320748     0.38800
H328        H  0.32044570  0.39432969  0.98166324     0.30700
H329        H  0.37641139  0.32076984  0.01042189     0.30700
H330        H  0.31970780  0.33066143  0.11983720     0.31000
Zr331      Zr  0.35091145  0.35899404  0.61601655     2.17500
O332        O  0.32727634  0.34050742  0.64275875    -0.51300
O333        O  0.36081667  0.36251746  0.67470944    -0.74600
O334        O  0.35595550  0.32584830  0.61317886    -0.81300
O335        O  0.31843035  0.40027287  0.61203391    -0.83100
O336        O  0.38252626  0.32082331  0.58530459    -0.78700
O337        O  0.32179727  0.37169015  0.63268068    -0.90300
O338        O  0.38297797  0.38396610  0.67648911    -0.76300
O339        O  0.38329505  0.36005934  0.61399440    -0.85800
O340        O  0.35903678  0.39028517  0.62266636    -0.85500
O341        O  0.35829255  0.34789123  0.56038848    -0.72200
O342        O  0.33623400  0.37549984  0.57104360    -0.84400
Zr343      Zr  0.38597927  0.39592647  0.51927337     2.26400
Zr344      Zr  0.39089263  0.34921360  0.55855172     2.06300
Zr345      Zr  0.34531759  0.40659802  0.57708529     2.10000
Zr346      Zr  0.39129973  0.39141721  0.61946477     1.78800
O347        O  0.32000931  0.41747827  0.54313248    -0.93200
O348        O  0.41877092  0.37776374  0.64257026    -0.41000
O349        O  0.37783946  0.40776407  0.57386109    -0.77600
O350        O  0.40041059  0.38023676  0.56551286    -0.96300
O351        O  0.37699650  0.36506965  0.51249858    -0.89600
O352        O  0.35352018  0.39585072  0.52185299    -0.92500
C353        C  0.37177027  0.37307475  0.69077474     1.01300
C354        C  0.31286724  0.38659370  0.62962471     1.14200
C355        C  0.36831310  0.31530190  0.60102159     1.05000
O356        O  0.41704893  0.33687627  0.58832851    -0.94600
O357        O  0.41784198  0.35470633  0.52459027    -0.90400
O358        O  0.41565126  0.38344638  0.50441478    -0.83500
C359        C  0.42423016  0.36838276  0.50825928     1.11600
O360        O  0.31803130  0.34548898  0.52409534    -0.96600
Zr361      Zr  0.34461453  0.36491762  0.51598720     1.88900
O362        O  0.37746914  0.39084925  0.46023342    -0.73200
O363        O  0.39130652  0.32540186  0.51569613    -0.52500
O364        O  0.34612136  0.33636504  0.48478549    -0.97200
O365        O  0.31732514  0.37982807  0.49470211    -0.54400
O366        O  0.35315254  0.37190746  0.45864945    -0.73700
C367        C  0.36564894  0.38127217  0.44424235     0.98600
O368        O  0.40539138  0.41788869  0.49008643    -0.62600
O369        O  0.34249144  0.43127698  0.61797905    -0.57400
O370        O  0.38205982  0.42876821  0.52244662    -0.94100
O371        O  0.35636234  0.43491516  0.55250479    -0.92500
O372        O  0.38854836  0.42098492  0.64677375    -0.92800
O373        O  0.41800904  0.41094073  0.61518115    -0.91600
C374        C  0.37018534  0.43973874  0.53469893     1.17400
H375        H  0.35459115  0.39507198  0.64385788     0.33400
H376        H  0.41347661  0.38142926  0.56538223     0.44200
H377        H  0.34851877  0.40349321  0.50435742     0.37800
H378        H  0.35396151  0.33569364  0.55632596     0.34200
H379        H  0.42041468  0.38367492  0.66486463     0.26000
H380        H  0.39955010  0.31598871  0.52484687     0.32000
H381        H  0.35865297  0.33592416  0.47564268     0.37900
H382        H  0.37568782  0.42448599  0.64356821     0.32300
H383        H  0.33129504  0.43779651  0.61129748     0.31200
H384        H  0.31965227  0.43076905  0.54719221     0.32900
H385        H  0.32159941  0.39071545  0.48229130     0.31900
H386        H  0.41846409  0.41456079  0.59109683     0.35900
H387        H  0.41680468  0.41850076  0.50329742     0.28600
H388        H  0.33346514  0.33302125  0.66004615     0.32800
H389        H  0.31191553  0.34490807  0.50184147     0.35700
H390        H  0.33934411  0.42537083  0.63970003     0.28300
H391        H  0.40883808  0.41208058  0.46841119     0.41200
H392        H  0.42452698  0.34764266  0.59416451     0.31200
H393        H  0.41529520  0.36508392  0.64805390     0.38800
H394        H  0.31119625  0.38469110  0.51508412     0.30700
H395        H  0.37907204  0.31977948  0.51682877     0.30700
H396        H  0.32299260  0.33179631  0.62537452     0.31000
Zr397      Zr  0.15191900  0.35827124  0.26991740     2.17500
O398        O  0.17298206  0.33983532  0.23669167    -0.51300
O399        O  0.14129998  0.36138895  0.21151920    -0.74600
O400        O  0.14696462  0.32533152  0.27595091    -0.81300
O401        O  0.18510967  0.39895773  0.27319593    -0.83100
O402        O  0.11888743  0.32130138  0.29890232    -0.78700
O403        O  0.18248908  0.36938079  0.25690940    -0.90300
O404        O  0.12172063  0.38516477  0.20863954    -0.76300
O405        O  0.11956178  0.36044959  0.27122826    -0.85800
O406        O  0.14486870  0.38970243  0.26271679    -0.85500
O407        O  0.14362597  0.34753171  0.32558373    -0.72200
O408        O  0.16682800  0.37437332  0.31525977    -0.84400
Zr409      Zr  0.11728724  0.39647666  0.36565914     2.26400
Zr410      Zr  0.11107056  0.34980024  0.32630210     2.06300
Zr411      Zr  0.15873759  0.40566685  0.30847214     2.10000
Zr412      Zr  0.11266921  0.39204278  0.26539212     1.78800
O413        O  0.18542423  0.41617025  0.33917215    -0.93200
O414        O  0.08572777  0.37860520  0.23951626    -0.41000
O415        O  0.12628749  0.40809920  0.31132937    -0.77600
O416        O  0.10287579  0.38111612  0.31888507    -0.96300
O417        O  0.12502832  0.36535374  0.37290787    -0.89600
O418        O  0.14973215  0.39533324  0.36356998    -0.92500
C419        C  0.13181794  0.37306650  0.19507312     1.01300
C420        C  0.19110994  0.38461080  0.25836229     1.14200
C421        C  0.13386676  0.31524469  0.28678088     1.05000
O422        O  0.08417219  0.33855152  0.29707240    -0.94600
O423        O  0.08378424  0.35643511  0.35851523    -0.90400
O424        O  0.08651355  0.38534156  0.37803125    -0.83500
C425        C  0.07744482  0.37050903  0.37366377     1.11600
O426        O  0.18318935  0.34357490  0.36519415    -0.96600
Zr427      Zr  0.15742089  0.36422560  0.37013851     1.88900
O428        O  0.12511666  0.39119027  0.42495891    -0.73200
O429        O  0.10873866  0.32579342  0.36852767    -0.52500
O430        O  0.15338495  0.33604826  0.40175111    -0.97200
O431        O  0.18513008  0.37818713  0.39202279    -0.54400
O432        O  0.14896163  0.37173019  0.42702440    -0.73700
C433        C  0.13665661  0.38139584  0.44106866     0.98600
O434        O  0.09853030  0.41961263  0.39293956    -0.62600
O435        O  0.16066000  0.42967598  0.26604835    -0.57400
O436        O  0.12411244  0.42886947  0.36434108    -0.94100
O437        O  0.15016134  0.43415842  0.33482387    -0.92500
O438        O  0.11630588  0.42202235  0.24008135    -0.92800
O439        O  0.08581499  0.41121389  0.27052715    -0.91600
C440        C  0.13668174  0.43940164  0.35299836     1.17400
H441        H  0.14969134  0.39425490  0.24164121     0.33400
H442        H  0.08987632  0.38274575  0.31817491     0.44200
H443        H  0.15497019  0.40285009  0.38108219     0.37800
H444        H  0.14753503  0.33537356  0.33095522     0.34200
H445        H  0.08527875  0.38383282  0.21647665     0.26000
H446        H  0.09958073  0.31724620  0.35927339     0.32000
H447        H  0.14056304  0.33624619  0.40941742     0.37900
H448        H  0.11009106  0.42113288  0.21796091     0.32300
H449        H  0.17165301  0.43672807  0.27222071     0.31200
H450        H  0.19104495  0.42540279  0.32420621     0.32900
H451        H  0.18112052  0.38889992  0.40522992     0.31900
H452        H  0.08802971  0.41860678  0.29106190     0.35900
H453        H  0.08765076  0.42093562  0.37843849     0.28600
H454        H  0.16533313  0.33208030  0.22194063     0.32800
H455        H  0.18804890  0.34225321  0.38838990     0.35700
H456        H  0.16396161  0.42355072  0.24460974     0.28300
H457        H  0.09399391  0.41400543  0.41409395     0.41200
H458        H  0.08797257  0.33719236  0.27319157     0.31200
H459        H  0.08883263  0.36565032  0.23590156     0.38800
H460        H  0.19125931  0.38335181  0.37189495     0.30700
H461        H  0.12037589  0.31909295  0.36694810     0.30700
H462        H  0.17878623  0.33134463  0.25280229     0.31000
Zr463      Zr  0.15417437  0.35807940  0.77086948     2.17500
O464        O  0.17831569  0.33968651  0.74580702    -0.51300
O465        O  0.14407950  0.35999978  0.71204635    -0.74600
O466        O  0.14878934  0.32510576  0.77440555    -0.81300
O467        O  0.18583358  0.39974160  0.77168107    -0.83100
O468        O  0.12234153  0.32019955  0.80286648    -0.78700
O469        O  0.18374612  0.37024676  0.75525705    -0.90300
O470        O  0.12144757  0.38073500  0.70826577    -0.76300
O471        O  0.12184306  0.35878319  0.77260045    -0.85800
O472        O  0.14588392  0.38910210  0.76195416    -0.85500
O473        O  0.14660818  0.34759007  0.82681415    -0.72200
O474        O  0.16826814  0.37553787  0.81527971    -0.84400
Zr475      Zr  0.11811123  0.39622623  0.86491985     2.26400
Zr476      Zr  0.11403051  0.34883103  0.82848757     2.06300
Zr477      Zr  0.15914741  0.40633832  0.80693721     2.10000
Zr478      Zr  0.11362254  0.38984784  0.76472378     1.78800
O479        O  0.18507383  0.41658389  0.84009352    -0.93200
O480        O  0.08631760  0.37454901  0.74433960    -0.41000
O481        O  0.12662228  0.40719839  0.80973364    -0.77600
O482        O  0.10451992  0.37957175  0.81899738    -0.96300
O483        O  0.12731484  0.36565238  0.87393792    -0.89600
O484        O  0.15060932  0.39630485  0.86240840    -0.92500
C485        C  0.13275693  0.36961630  0.69500561     1.01300
C486        C  0.19215618  0.38556899  0.75652857     1.14200
C487        C  0.13647531  0.31463823  0.78701862     1.05000
O488        O  0.08783464  0.33441251  0.80198822    -0.94600
O489        O  0.08616646  0.35493781  0.85901236    -0.90400
O490        O  0.08766416  0.38394411  0.87834666    -0.83500
C491        C  0.07912053  0.36877278  0.87377522     1.11600
O492        O  0.18948802  0.35190807  0.86107447    -0.96600
Zr493      Zr  0.15970990  0.36559317  0.87063245     1.88900
O494        O  0.12595182  0.39115952  0.92441826    -0.73200
O495        O  0.11489524  0.32743362  0.87542358    -0.52500
O496        O  0.16008019  0.33537285  0.89602130    -0.97200
O497        O  0.18381726  0.38144834  0.90128010    -0.54400
O498        O  0.14864012  0.37041044  0.92717265    -0.73700
C499        C  0.13670645  0.38066232  0.94099557     0.98600
O500        O  0.09752816  0.41949596  0.88657623    -0.62600
O501        O  0.16153408  0.43095293  0.76591759    -0.57400
O502        O  0.12473574  0.42879105  0.86522667    -0.94100
O503        O  0.14863091  0.43504912  0.83063590    -0.92500
O504        O  0.11598513  0.41810582  0.73292598    -0.92800
O505        O  0.08691316  0.40918516  0.77013777    -0.91600
C506        C  0.13599995  0.43991212  0.85124371     1.17400
H507        H  0.15033272  0.39350321  0.74047451     0.33400
H508        H  0.09146910  0.38068681  0.81829902     0.44200
H509        H  0.15550564  0.40431185  0.87949500     0.37800
H510        H  0.15098425  0.33547860  0.83127634     0.34200
H511        H  0.08282347  0.38135073  0.72377033     0.26000
H512        H  0.10571445  0.31807401  0.86960376     0.32000
H513        H  0.16534220  0.33719728  0.91879301     0.37900
H514        H  0.10811371  0.41624520  0.71293017     0.32300
H515        H  0.17313858  0.43712720  0.77144774     0.31200
H516        H  0.19305459  0.40578368  0.84162902     0.32900
H517        H  0.18744018  0.37294015  0.91943955     0.31900
H518        H  0.08954245  0.41704971  0.78988053     0.35900
H519        H  0.08658672  0.41891920  0.87205518     0.28600
H520        H  0.17234745  0.33148062  0.72932783     0.32800
H521        H  0.19308197  0.34626259  0.88275412     0.35700
H522        H  0.16382629  0.42493304  0.74393091     0.28300
H523        H  0.09345239  0.41510351  0.90898787     0.41200
H524        H  0.09031798  0.33509146  0.77742031     0.31200
H525        H  0.09058783  0.36264267  0.73574732     0.38800
H526        H  0.17782138  0.39155894  0.91347218     0.30700
H527        H  0.12670161  0.32110986  0.87303118     0.30700
H528        H  0.18276801  0.33165144  0.76405759     0.31000
Zr529      Zr  0.10311359  0.61471645  0.40701985     2.17500
O530        O  0.08277221  0.59294276  0.37958486    -0.51300
O531        O  0.10834873  0.62221452  0.34718711    -0.74600
O532        O  0.07107331  0.62417581  0.40606290    -0.81300
O533        O  0.14123781  0.57949695  0.41570589    -0.83100
O534        O  0.06732279  0.64956541  0.43779620    -0.78700
O535        O  0.11145571  0.58265173  0.40137402    -0.90300
O536        O  0.12703082  0.64679079  0.34398606    -0.76300
O537        O  0.10599009  0.64704263  0.40824629    -0.85800
O538        O  0.13466447  0.62095721  0.39828200    -0.85500
O539        O  0.09276621  0.62368281  0.46259553    -0.72200
O540        O  0.11898723  0.60022481  0.45266349    -0.84400
Zr541      Zr  0.14379858  0.64895633  0.50025062     2.26400
Zr542      Zr  0.09639353  0.65617961  0.46370632     2.06300
Zr543      Zr  0.15038831  0.60702340  0.44444518     2.10000
Zr544      Zr  0.13752037  0.65324799  0.40028747     1.78800
O545        O  0.16137910  0.58114530  0.47689365    -0.93200
O546        O  0.12619016  0.68222712  0.37937654    -0.41000
O547        O  0.15369089  0.63929841  0.44540913    -0.77600
O548        O  0.12775930  0.66364575  0.45457002    -0.96300
O549        O  0.11247163  0.64219943  0.50929185    -0.89600
O550        O  0.14116904  0.61658693  0.49971111    -0.92500
C551        C  0.11703875  0.63452103  0.33053422     1.01300
C552        C  0.12616172  0.57334101  0.40420282     1.14200
C553        C  0.06117851  0.63699750  0.41844778     1.05000
O554        O  0.08803211  0.68361684  0.43302333    -0.94600
O555        O  0.10341095  0.68218171  0.49929646    -0.90400
O556        O  0.13317408  0.67957423  0.51404476    -0.83500
C557        C  0.11805648  0.68828324  0.51281077     1.11600
O558        O  0.08813084  0.58480366  0.50427358    -0.96600
Zr559      Zr  0.10972396  0.60994318  0.50750579     1.88900
O560        O  0.14070167  0.63965021  0.55957623    -0.73200
O561        O  0.07250302  0.65980069  0.50595377    -0.52500
O562        O  0.08282663  0.61579243  0.54184527    -0.97200
O563        O  0.12300610  0.58134346  0.52654569    -0.54400
O564        O  0.12004786  0.61675800  0.56374092    -0.73700
C565        C  0.13115089  0.62820644  0.57670217     0.98600
O566        O  0.16692419  0.66698043  0.52926365    -0.62600
O567        O  0.17344388  0.60269464  0.40080497    -0.57400
O568        O  0.17612809  0.64425267  0.48674495    -0.94100
O569        O  0.17972680  0.61554525  0.46647859    -0.92500
O570        O  0.16518777  0.64761105  0.36804543    -0.92800
O571        O  0.16007628  0.67743549  0.40505702    -0.91600
C572        C  0.18602056  0.63087502  0.47647457     1.17400
H573        H  0.13900144  0.61603855  0.37711615     0.33400
H574        H  0.12956203  0.67665238  0.45408288     0.44200
H575        H  0.14872034  0.61113462  0.51687227     0.37800
H576        H  0.08023859  0.62026155  0.46627943     0.34200
H577        H  0.13187239  0.68365047  0.35682038     0.26000
H578        H  0.06454768  0.66948329  0.49687041     0.32000
H579        H  0.08484638  0.62803171  0.55165429     0.37900
H580        H  0.16445184  0.65597051  0.34847984     0.32300
H581        H  0.18102974  0.59253283  0.40913106     0.31200
H582        H  0.16946845  0.57446203  0.46119101     0.32900
H583        H  0.13362177  0.58477014  0.54054063     0.31900
H584        H  0.16339223  0.67761590  0.42930113     0.35900
H585        H  0.16852992  0.67809741  0.51542523     0.28600
H586        H  0.07651273  0.59972724  0.36140610     0.32800
H587        H  0.08677597  0.58031326  0.52773505     0.35700
H588        H  0.16689497  0.59755005  0.38114928     0.28300
H589        H  0.16118460  0.67124699  0.55048910     0.41200
H590        H  0.08404790  0.67929279  0.41051196     0.31200
H591        H  0.11316868  0.68000888  0.37458906     0.38800
H592        H  0.12831490  0.57584548  0.50593090     0.30700
H593        H  0.06510625  0.64855230  0.50450664     0.30700
H594        H  0.07318835  0.59002997  0.39636669     0.31000
Zr595      Zr  0.10054023  0.61516564  0.90671225     2.17500
O596        O  0.08066413  0.59195682  0.88238235    -0.51300
O597        O  0.10645123  0.62113022  0.84654159    -0.74600
O598        O  0.06839815  0.62434117  0.90377532    -0.81300
O599        O  0.13754933  0.57981815  0.92634525    -0.83100
O600        O  0.06446982  0.65091204  0.93201161    -0.78700
O601        O  0.10996928  0.58315262  0.90142649    -0.90300
O602        O  0.12958955  0.64156322  0.84240073    -0.76300
O603        O  0.10346076  0.64751548  0.90399673    -0.85800
O604        O  0.13225819  0.62117696  0.90018435    -0.85500
O605        O  0.08927202  0.62638775  0.96030020    -0.72200
O606        O  0.11532565  0.60232396  0.95523858    -0.84400
Zr607      Zr  0.13969563  0.65232484  0.99923958     2.26400
Zr608      Zr  0.09323800  0.65884772  0.95758536     2.06300
Zr609      Zr  0.14689267  0.60890262  0.94898848     2.10000
Zr610      Zr  0.13508489  0.65354927  0.89801960     1.78800
O611        O  0.15887055  0.58717722  0.98968378    -0.93200
O612        O  0.12058057  0.67851596  0.86786509    -0.41000
O613        O  0.15014557  0.64111656  0.94592306    -0.77600
O614        O  0.12487124  0.66583117  0.95096754    -0.96300
O615        O  0.10805683  0.64621297  0.00584753    -0.89600
O616        O  0.13663527  0.62000630  0.00249476    -0.92500
C617        C  0.11828370  0.63028226  0.82958793     1.01300
C618        C  0.12375882  0.57349004  0.91041148     1.14200
C619        C  0.05842012  0.63754798  0.91450352     1.05000
O620        O  0.08887789  0.68483258  0.92035011    -0.94600
O621        O  0.09830295  0.68498173  0.99374624    -0.90400
O622        O  0.12672210  0.68167530  0.01491500    -0.83500
C623        C  0.11179666  0.69052127  0.01147985     1.11600
O624        O  0.08369222  0.58853195  0.00431435    -0.96600
Zr625      Zr  0.10485226  0.61405720  0.00792271     1.88900
O626        O  0.13655643  0.64413738  0.05906327    -0.73200
O627        O  0.06798443  0.66665084  0.99489957    -0.52500
O628        O  0.07614908  0.61942877  0.03701176    -0.97200
O629        O  0.11751322  0.58694483  0.03431763    -0.54400
O630        O  0.11217169  0.62522989  0.06338818    -0.73700
C631        C  0.12451361  0.63538297  0.07622248     0.98600
O632        O  0.16198032  0.67368880  0.02193689    -0.62600
O633        O  0.16961319  0.59873832  0.90821681    -0.57400
O634        O  0.17273794  0.64783844  0.99163723    -0.94100
O635        O  0.17626003  0.62153263  0.96246143    -0.92500
O636        O  0.16519374  0.64954973  0.87336812    -0.92800
O637        O  0.15376798  0.68096717  0.89813711    -0.91600
C638        C  0.18271271  0.63576761  0.97689120     1.17400
H639        H  0.13718408  0.61526839  0.88040119     0.33400
H640        H  0.12675821  0.67883909  0.95046928     0.44200
H641        H  0.14362619  0.61503219  0.02092944     0.37800
H642        H  0.07668838  0.62316447  0.96384893     0.34200
H643        H  0.12831471  0.68050778  0.84768353     0.26000
H644        H  0.06058954  0.67548613  0.98201223     0.32000
H645        H  0.07397832  0.63263000  0.03434624     0.37900
H646        H  0.16419563  0.65444561  0.85013622     0.32300
H647        H  0.17446300  0.58730015  0.91781861     0.31200
H648        H  0.17193897  0.59017442  0.99196241     0.32900
H649        H  0.12565811  0.59148203  0.05236114     0.31900
H650        H  0.16128477  0.67992594  0.91878019     0.35900
H651        H  0.16141511  0.68457396  0.00723504     0.28600
H652        H  0.07428914  0.59787781  0.86332362     0.32800
H653        H  0.08208916  0.58411345  0.02777037     0.35700
H654        H  0.16272943  0.59485210  0.88797537     0.28300
H655        H  0.15718998  0.67771736  0.04411763     0.41200
H656        H  0.08168222  0.68005376  0.90116061     0.31200
H657        H  0.10917692  0.67333364  0.85866667     0.38800
H658        H  0.12578187  0.58176458  0.01707109     0.30700
H659        H  0.06034102  0.65557003  0.99628191     0.30700
H660        H  0.07113253  0.58958651  0.89955107     0.31000
Zr661      Zr  0.10496760  0.88678595  0.23501776     2.17500
O662        O  0.08401487  0.91113421  0.25052041    -0.51300
O663        O  0.11033290  0.88183237  0.29550436    -0.74600
O664        O  0.07313524  0.87706647  0.24122949    -0.81300
O665        O  0.14461175  0.91985327  0.22342329    -0.83100
O666        O  0.06831962  0.85117402  0.21111172    -0.78700
O667        O  0.11579782  0.91790411  0.24375141    -0.90300
O668        O  0.13135851  0.85938123  0.30039503    -0.76300
O669        O  0.10643868  0.85436650  0.23700104    -0.85800
O670        O  0.13635162  0.87976480  0.24261843    -0.85500
O671        O  0.09365179  0.87637042  0.18122044    -0.72200
O672        O  0.12088676  0.89939653  0.18723364    -0.84400
Zr673      Zr  0.14342523  0.84921936  0.14369473     2.26400
Zr674      Zr  0.09637100  0.84382532  0.18275300     2.06300
Zr675      Zr  0.15218618  0.89184001  0.19475227     2.10000
Zr676      Zr  0.13765568  0.84737858  0.24461367     1.78800
O677        O  0.16332614  0.91559023  0.15708805    -0.93200
O678        O  0.12195575  0.82224485  0.27243456    -0.41000
O679        O  0.15388965  0.85955891  0.19749657    -0.77600
O680        O  0.12758493  0.83579172  0.19106936    -0.96300
O681        O  0.11221829  0.85619066  0.13546100    -0.89600
O682        O  0.14172432  0.88160794  0.14069931    -0.92500
C683        C  0.12109821  0.87175818  0.31293238     1.01300
C684        C  0.13067298  0.92667111  0.23824289     1.14200
C685        C  0.06284971  0.86420778  0.23005731     1.05000
O686        O  0.08671693  0.81637369  0.21222618    -0.94600
O687        O  0.10182027  0.81734975  0.14772416    -0.90400
O688        O  0.13056084  0.82010558  0.12732115    -0.83500
C689        C  0.11535545  0.81167757  0.13017286     1.11600
O690        O  0.09183022  0.91594818  0.13831874    -0.96600
Zr691      Zr  0.11012370  0.88839100  0.13401736     1.88900
O692        O  0.14035512  0.85700117  0.08379618    -0.73200
O693        O  0.07232035  0.84247779  0.14048981    -0.52500
O694        O  0.08018455  0.88472382  0.10850205    -0.97200
O695        O  0.12352574  0.91373556  0.10289140    -0.54400
O696        O  0.11530359  0.87483216  0.07915371    -0.73700
C697        C  0.12769585  0.86464616  0.06658523     0.98600
O698        O  0.16670183  0.82937286  0.11983524    -0.62600
O699        O  0.17623611  0.89846106  0.23538167    -0.57400
O700        O  0.17610970  0.85201284  0.15408433    -0.94100
O701        O  0.18139888  0.87989190  0.17700486    -0.92500
O702        O  0.16735060  0.84988587  0.27123967    -0.92800
O703        O  0.15618476  0.81995500  0.24411099    -0.91600
C704        C  0.18674561  0.86451512  0.16537049     1.17400
H705        H  0.14125583  0.88537401  0.26270660     0.33400
H706        H  0.12904230  0.82273738  0.19142693     0.44200
H707        H  0.14909041  0.88638004  0.12249625     0.37800
H708        H  0.08111309  0.87990714  0.17837201     0.34200
H709        H  0.12953560  0.81940366  0.29239638     0.26000
H710        H  0.06473417  0.83192416  0.14716081     0.32000
H711        H  0.08043102  0.87257361  0.09768904     0.37900
H712        H  0.17228191  0.86162906  0.26304329     0.32300
H713        H  0.18171041  0.91003591  0.22753629     0.31200
H714        H  0.17632404  0.91705840  0.16300249     0.32900
H715        H  0.13095754  0.90808471  0.08484767     0.31900
H716        H  0.16366520  0.82102091  0.22336258     0.35900
H717        H  0.16533621  0.81754951  0.13157443     0.28600
H718        H  0.07802360  0.90718466  0.27171946     0.32800
H719        H  0.08866948  0.91931456  0.11482733     0.35700
H720        H  0.16998080  0.90164821  0.25674892     0.28300
H721        H  0.16290862  0.82699363  0.09627605     0.41200
H722        H  0.07409557  0.81421193  0.20448791     0.31200
H723        H  0.11076576  0.82764555  0.28207691     0.38800
H724        H  0.13248923  0.91913085  0.11863236     0.30700
H725        H  0.06456342  0.85321109  0.14493618     0.30700
H726        H  0.07431254  0.91109214  0.23319418     0.31000
Zr727      Zr  0.10110080  0.88061108  0.73899999     2.17500
O728        O  0.08097784  0.90196673  0.76791150    -0.51300
O729        O  0.10639268  0.87082282  0.79747427    -0.74600
O730        O  0.06909798  0.87126085  0.73941502    -0.81300
O731        O  0.13865584  0.91682572  0.73103476    -0.83100
O732        O  0.06517476  0.84724281  0.70399007    -0.78700
O733        O  0.10996164  0.91227501  0.75057054    -0.90300
O734        O  0.12557694  0.84669952  0.79811634    -0.76300
O735        O  0.10400191  0.84831901  0.73420974    -0.85800
O736        O  0.13258622  0.87418671  0.74621507    -0.85500
O737        O  0.09054841  0.87316697  0.68281488    -0.72200
O738        O  0.11633003  0.89665868  0.69430110    -0.84400
Zr739      Zr  0.14159868  0.85034407  0.64101318     2.26400
Zr740      Zr  0.09440936  0.84076205  0.67790199     2.06300
Zr741      Zr  0.14778945  0.88982308  0.70132399     2.10000
Zr742      Zr  0.13556678  0.84202225  0.74063520     1.78800
O743        O  0.16039277  0.91496972  0.66869298    -0.93200
O744        O  0.12372369  0.81223225  0.75653450    -0.41000
O745        O  0.15145927  0.85774865  0.69687194    -0.77600
O746        O  0.12599512  0.83352606  0.68497762    -0.96300
O747        O  0.11008425  0.85646177  0.63345410    -0.89600
O748        O  0.13830446  0.88250155  0.64513231    -0.92500
C749        C  0.11545426  0.85839915  0.81294538     1.01300
C750        C  0.12426660  0.92217529  0.74625163     1.14200
C751        C  0.05911666  0.85925217  0.72471890     1.05000
O752        O  0.08800648  0.81264481  0.70818397    -0.94600
O753        O  0.10125893  0.81698169  0.63678160    -0.90400
O754        O  0.13098116  0.82074093  0.62244227    -0.83500
C755        C  0.11596235  0.81186252  0.62198816     1.11600
O756        O  0.08331828  0.91196135  0.64169332    -0.96600
Zr757      Zr  0.10663464  0.88847129  0.63866249     1.88900
O758        O  0.13843299  0.86180707  0.58318375    -0.73200
O759        O  0.06956758  0.83629795  0.63795592    -0.52500
O760        O  0.07925554  0.88109860  0.60674169    -0.97200
O761        O  0.11753063  0.91871912  0.62336274    -0.54400
O762        O  0.11701027  0.88393119  0.58140770    -0.73700
C763        C  0.12849412  0.87331152  0.56722511     0.98600
O764        O  0.16476303  0.83428447  0.60836130    -0.62600
O765        O  0.16857361  0.89558762  0.74796758    -0.57400
O766        O  0.17419370  0.85438787  0.65273040    -0.94100
O767        O  0.17754259  0.88031999  0.68325681    -0.92500
O768        O  0.16334501  0.84692304  0.77285382    -0.92800
O769        O  0.15848963  0.81826993  0.73554641    -0.91600
C770        C  0.18401450  0.86649784  0.66765292     1.17400
H771        H  0.13706363  0.87848525  0.76773180     0.33400
H772        H  0.12795159  0.82057142  0.68332688     0.44200
H773        H  0.14563455  0.88875530  0.62849803     0.37800
H774        H  0.07801677  0.87662524  0.67969832     0.34200
H775        H  0.13131279  0.80836285  0.77587105     0.26000
H776        H  0.06118115  0.82756049  0.64898857     0.32000
H777        H  0.08190145  0.86932175  0.59562180     0.37900
H778        H  0.17262851  0.85029725  0.75579514     0.32300
H779        H  0.17849361  0.90296334  0.73796240     0.31200
H780        H  0.16609744  0.92307036  0.68566521     0.32900
H781        H  0.12862310  0.91661788  0.60971052     0.31900
H782        H  0.16053430  0.81700468  0.71092076     0.35900
H783        H  0.16660494  0.82254996  0.62011589     0.28600
H784        H  0.07529702  0.89505082  0.78661468     0.32800
H785        H  0.08164071  0.91625518  0.61818120     0.35700
H786        H  0.17424533  0.88367725  0.75278127     0.28300
H787        H  0.15896044  0.83098119  0.58664568     0.41200
H788        H  0.07827071  0.80667964  0.69490666     0.31200
H789        H  0.11165898  0.81473905  0.76663084     0.38800
H790        H  0.12205090  0.92400080  0.64480154     0.30700
H791        H  0.06287225  0.84797096  0.63769764     0.30700
H792        H  0.07096121  0.90468567  0.75201025     0.31000
Zr793      Zr  0.65376429  0.64281139  0.12045579     2.17500
O794        O  0.67802457  0.66181662  0.14361780    -0.51300
O795        O  0.64406847  0.63912949  0.17931736    -0.74600
O796        O  0.64745156  0.67569947  0.11933106    -0.81300
O797        O  0.68616306  0.60182719  0.11473855    -0.83100
O798        O  0.62028112  0.68024412  0.09335452    -0.78700
O799        O  0.68231902  0.62948553  0.13943011    -0.90300
O800        O  0.62241239  0.61719234  0.18045277    -0.76300
O801        O  0.62139148  0.64075672  0.11967340    -0.85800
O802        O  0.64669032  0.61119884  0.12505694    -0.85500
O803        O  0.64524610  0.65448632  0.06576985    -0.72200
O804        O  0.66842044  0.62785429  0.07341523    -0.84400
Zr805      Zr  0.61862010  0.60628332  0.02256280     2.26400
Zr806      Zr  0.61273388  0.65207722  0.06515041     2.06300
Zr807      Zr  0.66036635  0.59641310  0.07756431     2.10000
Zr808      Zr  0.61449802  0.60910355  0.12346292     1.78800
O809        O  0.68605965  0.58997097  0.04057654    -0.93200
O810        O  0.58582382  0.62115792  0.14474868    -0.41000
O811        O  0.62793421  0.59408438  0.07613100    -0.77600
O812        O  0.60446510  0.62066792  0.07057615    -0.96300
O813        O  0.62645543  0.63753103  0.01735903    -0.89600
O814        O  0.65107412  0.60768009  0.02353437    -0.92500
C815        C  0.63331064  0.62825084  0.19513672     1.01300
C816        C  0.69117941  0.61462735  0.13480802     1.14200
C817        C  0.63469105  0.68601094  0.10803390     1.05000
O818        O  0.58602071  0.66246401  0.09602119    -0.94600
O819        O  0.58562248  0.64615912  0.03247842    -0.90400
O820        O  0.58832767  0.61811993  0.00886751    -0.83500
C821        C  0.57936368  0.63274120  0.01528758     1.11600
O822        O  0.68329943  0.66113583  0.02733419    -0.96600
Zr823      Zr  0.65883600  0.63902172  0.01936899     1.88900
O824        O  0.62646084  0.61265150  0.96357720    -0.73200
O825        O  0.61070698  0.67635611  0.02338394    -0.52500
O826        O  0.65393182  0.66719510  0.98821165    -0.97200
O827        O  0.68733265  0.62628016  0.99851981    -0.54400
O828        O  0.65121817  0.63111847  0.96196497    -0.73700
C829        C  0.63867935  0.62181774  0.94762446     0.98600
O830        O  0.59806951  0.58303580  0.00050705    -0.62600
O831        O  0.66641864  0.56966458  0.11214582    -0.57400
O832        O  0.62584852  0.57394201  0.01960827    -0.94100
O833        O  0.64970358  0.56783421  0.05412912    -0.92500
O834        O  0.61909297  0.58043079  0.15294191    -0.92800
O835        O  0.58989079  0.58705172  0.11841703    -0.91600
C836        C  0.63717898  0.56294349  0.03343565     1.17400
H837        H  0.65141026  0.60614774  0.14578510     0.33400
H838        H  0.59145173  0.61898733  0.07081761     0.44200
H839        H  0.65616965  0.60055900  0.00531806     0.37800
H840        H  0.64909147  0.66687771  0.06211952     0.34200
H841        H  0.58501202  0.61671349  0.16832101     0.26000
H842        H  0.61198107  0.67019752  0.00124119     0.32000
H843        H  0.66147908  0.66608287  0.96755922     0.37900
H844        H  0.63041880  0.57542779  0.14312578     0.32300
H845        H  0.67952959  0.56708169  0.10907275     0.31200
H846        H  0.68385645  0.57746884  0.03216685     0.32900
H847        H  0.69064854  0.63391918  0.97886421     0.31900
H848        H  0.59087457  0.58243999  0.09495847     0.35900
H849        H  0.58715067  0.58336828  0.01518632     0.28600
H850        H  0.67238191  0.66925989  0.16167205     0.32800
H851        H  0.68888695  0.66307623  0.00483918     0.35700
H852        H  0.66529356  0.57387967  0.13583025     0.28300
H853        H  0.59394709  0.58755085  0.97824624     0.41200
H854        H  0.58131924  0.67278229  0.08256065     0.31200
H855        H  0.58786615  0.63442192  0.14697854     0.38800
H856        H  0.68405032  0.61439205  0.98846034     0.30700
H857        H  0.62212022  0.68339576  0.02592927     0.30700
H858        H  0.68137154  0.67052991  0.12555301     0.31000
Zr859      Zr  0.65216021  0.64345333  0.61740243     2.17500
O860        O  0.67675661  0.66177252  0.64117255    -0.51300
O861        O  0.64271927  0.64179967  0.67659631    -0.74600
O862        O  0.64716021  0.67644317  0.61285081    -0.81300
O863        O  0.68408412  0.60149257  0.61343441    -0.83100
O864        O  0.62051754  0.68121093  0.58500039    -0.78700
O865        O  0.68130275  0.63034247  0.63347418    -0.90300
O866        O  0.62151329  0.61949536  0.68089612    -0.76300
O867        O  0.61976957  0.64231542  0.61750301    -0.85800
O868        O  0.64418694  0.61231708  0.62602639    -0.85500
O869        O  0.64347894  0.65380264  0.56196118    -0.72200
O870        O  0.66592296  0.62638165  0.57221595    -0.84400
Zr871      Zr  0.61502507  0.60495759  0.52483596     2.26400
Zr872      Zr  0.61087471  0.65221647  0.56220706     2.06300
Zr873      Zr  0.65690147  0.59545976  0.58012523     2.10000
Zr874      Zr  0.61194031  0.61112381  0.62528653     1.78800
O875        O  0.68261673  0.58547897  0.54602845    -0.93200
O876        O  0.58566040  0.62677364  0.64904782    -0.41000
O877        O  0.62434109  0.59391589  0.57940156    -0.77600
O878        O  0.60190507  0.62125093  0.57168434    -0.96300
O879        O  0.62389540  0.63575531  0.51587382    -0.89600
O880        O  0.64754652  0.60552463  0.52541129    -0.92500
C881        C  0.63242435  0.63111409  0.69381784     1.01300
C882        C  0.68987945  0.61519770  0.63054638     1.14200
C883        C  0.63490777  0.68683189  0.60000121     1.05000
O884        O  0.58644342  0.66637636  0.59437904    -0.94600
O885        O  0.58219083  0.64538993  0.53492878    -0.90400
O886        O  0.58442850  0.61701489  0.51225000    -0.83500
C887        C  0.57549796  0.63161159  0.51931508     1.11600
O888        O  0.68186823  0.65738152  0.52439362    -0.96600
Zr889      Zr  0.65638042  0.63635718  0.51767011     1.88900
O890        O  0.62315816  0.60943669  0.46548910    -0.73200
O891        O  0.60789826  0.67309920  0.51477644    -0.52500
O892        O  0.65182191  0.66374552  0.48404395    -0.97200
O893        O  0.68504891  0.62340002  0.49828678    -0.54400
O894        O  0.64930454  0.62584897  0.46185763    -0.73700
C895        C  0.63615389  0.61694102  0.44872546     0.98600
O896        O  0.59369220  0.58210904  0.50380569    -0.62600
O897        O  0.65954981  0.57087618  0.62112209    -0.57400
O898        O  0.62191533  0.57239734  0.52397159    -0.94100
O899        O  0.64694213  0.56693549  0.55593115    -0.92500
O900        O  0.61460065  0.58279494  0.65668855    -0.92800
O901        O  0.58465636  0.59231686  0.62304588    -0.91600
C902        C  0.63392617  0.56169672  0.53668045     1.17400
H903        H  0.64903858  0.60785842  0.64710439     0.33400
H904        H  0.58890908  0.61974100  0.57316711     0.44200
H905        H  0.65245017  0.59774408  0.50795407     0.37800
H906        H  0.64778802  0.66584680  0.55655152     0.34200
H907        H  0.58318262  0.62045919  0.67067309     0.26000
H908        H  0.59825122  0.68170516  0.52174702     0.32000
H909        H  0.65821193  0.66138889  0.46243416     0.37900
H910        H  0.62121171  0.57449323  0.64127421     0.32300
H911        H  0.67184176  0.56578435  0.61733975     0.31200
H912        H  0.68338196  0.57219508  0.54989606     0.32900
H913        H  0.68723089  0.62902592  0.47591619     0.31900
H914        H  0.58531035  0.58617621  0.60078853     0.35900
H915        H  0.58307469  0.58249243  0.51922966     0.28600
H916        H  0.67108100  0.66949655  0.65877713     0.32800
H917        H  0.68629478  0.66012086  0.50130330     0.35700
H918        H  0.66030429  0.57691122  0.64345208     0.28300
H919        H  0.58918658  0.58675155  0.48188215     0.41200
H920        H  0.58174461  0.67610340  0.57948350     0.31200
H921        H  0.59020457  0.63892396  0.65586567     0.38800
H922        H  0.68228982  0.61050981  0.49315475     0.30700
H923        H  0.61921261  0.68042491  0.51507359     0.30700
H924        H  0.68061136  0.67027296  0.62310827     0.31000
Zr925      Zr  0.85054422  0.64169844  0.26768117     2.17500
O926        O  0.82530187  0.66089201  0.24968455    -0.51300
O927        O  0.85906817  0.63934494  0.20795160    -0.74600
O928        O  0.85656134  0.67461644  0.27173933    -0.81300
O929        O  0.81883633  0.59988905  0.26928961    -0.83100
O930        O  0.88411606  0.67867489  0.29670899    -0.78700
O931        O  0.82155614  0.62887517  0.25017095    -0.90300
O932        O  0.87967614  0.61646870  0.20257187    -0.76300
O933        O  0.88288660  0.63981820  0.26571453    -0.85800
O934        O  0.85757366  0.61032538  0.25938662    -0.85500
O935        O  0.86019873  0.65181733  0.32267466    -0.72200
O936        O  0.83678544  0.62530419  0.31382687    -0.84400
Zr937      Zr  0.88750217  0.60290718  0.35950198     2.26400
Zr938      Zr  0.89274552  0.64966665  0.32045210     2.06300
Zr939      Zr  0.84482827  0.59407400  0.30597964     2.10000
Zr940      Zr  0.88977839  0.60835007  0.25846542     1.78800
O941        O  0.81838078  0.58693259  0.34062044    -0.93200
O942        O  0.91650563  0.62278509  0.23359435    -0.41000
O943        O  0.87733264  0.59197019  0.30536336    -0.77600
O944        O  0.90090338  0.61846479  0.31196087    -0.96300
O945        O  0.87981005  0.63396366  0.36776275    -0.89600
O946        O  0.85506794  0.60390978  0.36052524    -0.92500
C947        C  0.86884128  0.62834535  0.19035975     1.01300
C948        C  0.81310960  0.61360211  0.25219827     1.14200
C949        C  0.86941846  0.68469362  0.28357551     1.05000
O950        O  0.91840266  0.65782187  0.28451754    -0.94600
O951        O  0.91950248  0.64372174  0.35409255    -0.90400
O952        O  0.91784476  0.61466195  0.37324155    -0.83500
C953        C  0.92625842  0.62988059  0.36924206     1.11600
O954        O  0.81967217  0.65299620  0.36911033    -0.96600
Zr955      Zr  0.84744047  0.63497748  0.36809951     1.88900
O956        O  0.88104007  0.60814173  0.41956326    -0.73200
O957        O  0.89857927  0.67425698  0.36047671    -0.52500
O958        O  0.84776810  0.66473995  0.39514647    -0.97200
O959        O  0.82356247  0.61679913  0.39454395    -0.54400
O960        O  0.86021946  0.63080906  0.42336619    -0.73700
C961        C  0.87170445  0.61984747  0.43639080     0.98600
O962        O  0.90827231  0.57901983  0.37771529    -0.62600
O963        O  0.84067847  0.56788393  0.26891301    -0.57400
O964        O  0.87977693  0.57071837  0.36152107    -0.94100
O965        O  0.85436557  0.56543202  0.33045562    -0.92500
O966        O  0.88496200  0.57979606  0.22848205    -0.92800
O967        O  0.91594932  0.58809388  0.25906959    -0.91600
C968        C  0.86745706  0.56013419  0.34943925     1.17400
H969        H  0.85238882  0.60578565  0.23860718     0.33400
H970        H  0.91393518  0.61698370  0.31118477     0.44200
H971        H  0.85031549  0.59627508  0.37835077     0.37800
H972        H  0.85637291  0.66402710  0.32792340     0.34200
H973        H  0.91919173  0.61550049  0.21312456     0.26000
H974        H  0.90671125  0.68283392  0.34840199     0.32000
H975        H  0.86080608  0.66803457  0.39635765     0.37900
H976        H  0.87901462  0.57171995  0.24521387     0.32300
H977        H  0.82799509  0.56384177  0.27284138     0.31200
H978        H  0.81169536  0.57756224  0.32760131     0.32900
H979        H  0.81269295  0.61844175  0.38014828     0.31900
H980        H  0.91376559  0.57994122  0.27857965     0.35900
H981        H  0.91912246  0.58008326  0.36297987     0.28600
H982        H  0.83023289  0.66915334  0.23214523     0.32800
H983        H  0.81393953  0.65076314  0.34686422     0.35700
H984        H  0.84066694  0.57291398  0.24571012     0.28300
H985        H  0.91246138  0.58265813  0.40049903     0.41200
H986        H  0.92495187  0.66740198  0.29725894     0.31200
H987        H  0.91209415  0.63455864  0.22469252     0.38800
H988        H  0.82064897  0.62327257  0.41582051     0.30700
H989        H  0.88689557  0.68082201  0.36269760     0.30700
H990        H  0.82238075  0.66879476  0.26924059     0.31000
Zr991      Zr  0.84937589  0.64251518  0.76511024     2.17500
O992        O  0.82502733  0.66081652  0.74083772    -0.51300
O993        O  0.85977060  0.63917477  0.70626464    -0.74600
O994        O  0.85464002  0.67575932  0.76971547    -0.81300
O995        O  0.81743857  0.60074452  0.76577337    -0.83100
O996        O  0.88095705  0.68039684  0.79874752    -0.78700
O997        O  0.82047098  0.62973618  0.74675812    -0.90300
O998        O  0.88440526  0.62058708  0.70434969    -0.76300
O999        O  0.88174046  0.64128668  0.76735767    -0.85800
O1000       O  0.85725785  0.61124026  0.75797767    -0.85500
O1001       O  0.85692350  0.65300973  0.82110680    -0.72200
O1002       O  0.83452454  0.62579015  0.80985515    -0.84400
Zr1003     Zr  0.88397985  0.60426732  0.86116256     2.26400
Zr1004     Zr  0.88947826  0.65145378  0.82322048     2.06300
Zr1005     Zr  0.84318637  0.59464832  0.80310959     2.10000
Zr1006     Zr  0.88947882  0.60994665  0.76102317     1.78800
O1007       O  0.81636529  0.58561903  0.83522279    -0.93200
O1008       O  0.91884011  0.62287910  0.74532282    -0.41000
O1009       O  0.87566000  0.59318503  0.80605149    -0.77600
O1010       O  0.89845919  0.62039780  0.81536085    -0.96300
O1011       O  0.87541288  0.63518634  0.86872021    -0.89600
O1012       O  0.85151133  0.60489737  0.85856595    -0.92500
C1013       C  0.87238212  0.63055901  0.69029035     1.01300
C1014       C  0.81194172  0.61449335  0.74849287     1.14200
C1015       C  0.86682659  0.68615127  0.78318972     1.05000
O1016       O  0.91599337  0.66343207  0.79360040    -0.94600
O1017       O  0.91646030  0.64512469  0.85625760    -0.90400
O1018       O  0.91406186  0.61633100  0.87667146    -0.83500
C1019       C  0.92285091  0.63129670  0.87207481     1.11600
O1020       O  0.81781440  0.65706050  0.85762411    -0.96600
Zr1021     Zr  0.84305399  0.63594501  0.86512314     1.88900
O1022       O  0.87502084  0.60924604  0.92018298    -0.73200
O1023       O  0.89101521  0.67413174  0.86811103    -0.52500
O1024       O  0.84665582  0.66394658  0.89760474    -0.97200
O1025       O  0.81499335  0.62183627  0.88528073    -0.54400
O1026       O  0.85081329  0.62825326  0.92222027    -0.73700
C1027       C  0.86312603  0.61867894  0.93636714     0.98600
O1028       O  0.90401886  0.58143830  0.88582590    -0.62600
O1029       O  0.84019308  0.56933468  0.76367392    -0.57400
O1030       O  0.87835035  0.57144850  0.85871871    -0.94100
O1031       O  0.85292160  0.56585839  0.82771012    -0.92500
O1032       O  0.88488270  0.58316723  0.72573174    -0.92800
O1033       O  0.91335411  0.58729036  0.76723826    -0.91600
C1034       C  0.86639758  0.56063457  0.84594572     1.17400
H1035       H  0.85302051  0.60670368  0.73645867     0.33400
H1036       H  0.91149819  0.61903361  0.81540371     0.44200
H1037       H  0.84633416  0.59719975  0.87587260     0.37800
H1038       H  0.85265309  0.66513558  0.82583025     0.34200
H1039       H  0.92232244  0.61639860  0.72434606     0.26000
H1040       H  0.90099987  0.68240857  0.86123279     0.32000
H1041       H  0.83889302  0.66236473  0.91787425     0.37900
H1042       H  0.89332713  0.58478040  0.70643408     0.32300
H1043       H  0.82747990  0.56509082  0.76634969     0.31200
H1044       H  0.80750646  0.59554639  0.83155290     0.32900
H1045       H  0.81250802  0.62779499  0.90725539     0.31900
H1046       H  0.91407510  0.58508926  0.79188949     0.35900
H1047       H  0.91564649  0.58224676  0.87323578     0.28600
H1048       H  0.83090381  0.66898825  0.72418034     0.32800
H1049       H  0.81169451  0.65795357  0.87987051     0.35700
H1050       H  0.84059947  0.57490469  0.74091462     0.28300
H1051       H  0.90683271  0.58586018  0.90887428     0.41200
H1052       H  0.91198870  0.66501030  0.76991192     0.31200
H1053       H  0.91606521  0.63540848  0.73780651     0.38800
H1054       H  0.81824722  0.60921595  0.89141543     0.30700
H1055       H  0.87982808  0.68148317  0.86565762     0.30700
H1056       H  0.82073633  0.66887765  0.75925845     0.31000
Zr1057     Zr  0.65557675  0.85914777  0.02481326     2.17500
O1058       O  0.67859041  0.83986337  0.99839812    -0.51300
O1059       O  0.64580413  0.86204589  0.96576050    -0.74600
O1060       O  0.64908353  0.82639827  0.02823067    -0.81300
O1061       O  0.68891964  0.89913583  0.02912403    -0.83100
O1062       O  0.62180229  0.82235094  0.05431976    -0.78700
O1063       O  0.68597564  0.86984162  0.01131960    -0.90300
O1064       O  0.62392994  0.88354194  0.96286567    -0.76300
O1065       O  0.62331703  0.86151985  0.02527507    -0.85800
O1066       O  0.64889364  0.89062015  0.01693574    -0.85500
O1067       O  0.64672119  0.84855894  0.08006820    -0.72200
O1068       O  0.67002982  0.87545067  0.07045191    -0.84400
Zr1069     Zr  0.62018047  0.89796307  0.11912823     2.26400
Zr1070     Zr  0.61422468  0.85118875  0.08025664     2.06300
Zr1071     Zr  0.66223175  0.90675415  0.06317463     2.10000
Zr1072     Zr  0.61671803  0.89308879  0.01873666     1.78800
O1073       O  0.68652988  0.91657695  0.10079995    -0.93200
O1074       O  0.58860507  0.88013893  0.99664118    -0.41000
O1075       O  0.62973778  0.90931887  0.06489458    -0.77600
O1076       O  0.60634919  0.88247692  0.07202996    -0.96300
O1077       O  0.62781829  0.86684707  0.12691513    -0.89600
O1078       O  0.65269360  0.89656508  0.11810964    -0.92500
C1079       C  0.63463768  0.87208457  0.94916274     1.01300
C1080       C  0.69477445  0.88487741  0.01372279     1.14200
C1081       C  0.63614331  0.81632457  0.03971448     1.05000
O1082       O  0.58764646  0.84016200  0.04975600    -0.94600
O1083       O  0.58667793  0.85772237  0.11161174    -0.90400
O1084       O  0.58908052  0.88697357  0.12989300    -0.83500
C1085       C  0.58010092  0.87206719  0.12547764     1.11600
O1086       O  0.68628925  0.84523743  0.11747776    -0.96600
Zr1087     Zr  0.66020900  0.86530522  0.12502224     1.88900
O1088       O  0.62844142  0.89361303  0.17848669    -0.73200
O1089       O  0.61251306  0.82861442  0.12517835    -0.52500
O1090       O  0.65623077  0.83632895  0.15415390    -0.97200
O1091       O  0.68744318  0.87838734  0.15056252    -0.54400
O1092       O  0.65146579  0.87326797  0.18172229    -0.73700
C1093       C  0.63963622  0.88373147  0.19525750     0.98600
O1094       O  0.59795059  0.91691877  0.14848021    -0.62600
O1095       O  0.66868825  0.93124424  0.02327376    -0.57400
O1096       O  0.62686129  0.93060736  0.11534966    -0.94100
O1097       O  0.65094598  0.93624709  0.08078956    -0.92500
O1098       O  0.62250935  0.92112362  0.98763580    -0.92800
O1099       O  0.59159296  0.91459264  0.02008693    -0.91600
C1100       C  0.63801466  0.94145001  0.10032981     1.17400
H1101       H  0.65384806  0.89497591  0.99581030     0.33400
H1102       H  0.59337125  0.88414804  0.07068002     0.44200
H1103       H  0.65778064  0.90407476  0.13578243     0.37800
H1104       H  0.65049647  0.83626403  0.08472876     0.34200
H1105       H  0.58708830  0.88579222  0.97411557     0.26000
H1106       H  0.60377413  0.81939205  0.11681096     0.32000
H1107       H  0.65944011  0.83874539  0.17802953     0.37900
H1108       H  0.63395582  0.91899931  0.97504404     0.32300
H1109       H  0.68065432  0.93618052  0.03021071     0.31200
H1110       H  0.69291596  0.92633637  0.08824665     0.32900
H1111       H  0.68342157  0.88971125  0.16185598     0.31900
H1112       H  0.59009123  0.91764068  0.04430936     0.35900
H1113       H  0.60475274  0.92318427  0.16665645     0.28600
H1114       H  0.67209515  0.83231604  0.98152881     0.32800
H1115       H  0.69110898  0.84299802  0.14044826     0.35700
H1116       H  0.67098822  0.92525669  0.00125522     0.28300
H1117       H  0.59440620  0.92663509  0.13249495     0.41200
H1118       H  0.59189416  0.83828759  0.02625280     0.31200
H1119       H  0.59153590  0.86727371  0.99165387     0.38800
H1120       H  0.69489133  0.88257571  0.13119474     0.30700
H1121       H  0.62443506  0.82238877  0.12463442     0.30700
H1122       H  0.68261666  0.83124401  0.01608573     0.31000
Zr1123     Zr  0.65622939  0.86020252  0.52617171     2.17500
O1124       O  0.68242092  0.84097182  0.51354610    -0.51300
O1125       O  0.64800629  0.86253401  0.46636653    -0.74600
O1126       O  0.64909601  0.82766995  0.52472121    -0.81300
O1127       O  0.68846231  0.90103439  0.52938911    -0.83100
O1128       O  0.62323515  0.82296410  0.55522929    -0.78700
O1129       O  0.68437554  0.87311574  0.50580060    -0.90300
O1130       O  0.62731235  0.88535088  0.46209682    -0.76300
O1131       O  0.62394206  0.86204235  0.52516556    -0.85800
O1132       O  0.64939339  0.89161531  0.51850810    -0.85500
O1133       O  0.64688423  0.84933397  0.58076571    -0.72200
O1134       O  0.66991925  0.87640327  0.57264551    -0.84400
Zr1135     Zr  0.61940159  0.89860284  0.61897002     2.26400
Zr1136     Zr  0.61442360  0.85174724  0.57988209     2.06300
Zr1137     Zr  0.66213833  0.90765444  0.56538333     2.10000
Zr1138     Zr  0.61721876  0.89349580  0.51799465     1.78800
O1139       O  0.68706748  0.91535671  0.60326254    -0.93200
O1140       O  0.59036943  0.87959546  0.49272219    -0.41000
O1141       O  0.62963654  0.90966597  0.56498736    -0.77600
O1142       O  0.60623702  0.88300321  0.57125226    -0.96300
O1143       O  0.62713172  0.86753577  0.62709622    -0.89600
O1144       O  0.65193200  0.89732934  0.61969849    -0.92500
C1145       C  0.63815792  0.87364768  0.44929214     1.01300
C1146       C  0.69333693  0.88793259  0.50977122     1.14200
C1147       C  0.63680190  0.81735060  0.53772595     1.05000
O1148       O  0.58897242  0.83886870  0.54866232    -0.94600
O1149       O  0.58648165  0.85815544  0.60965335    -0.90400
O1150       O  0.58874265  0.88667518  0.63145725    -0.83500
C1151       C  0.57987671  0.87186649  0.62550483     1.11600
O1152       O  0.68668702  0.84738736  0.62009916    -0.96600
Zr1153     Zr  0.65948178  0.86602528  0.62664817     1.88900
O1154       O  0.62647063  0.89401604  0.67883856    -0.73200
O1155       O  0.61210066  0.82983757  0.62584551    -0.52500
O1156       O  0.65530251  0.83652611  0.65377985    -0.97200
O1157       O  0.68530467  0.87913797  0.65681576    -0.54400
O1158       O  0.64788818  0.87191209  0.68230135    -0.73700
C1159       C  0.63635566  0.88278626  0.69555605     0.98600
O1160       O  0.59877752  0.92195618  0.64020817    -0.62600
O1161       O  0.66927662  0.93317653  0.52833447    -0.57400
O1162       O  0.62570385  0.93122044  0.61825504    -0.94100
O1163       O  0.65009983  0.93678486  0.58436046    -0.92500
O1164       O  0.62246302  0.92261262  0.49022189    -0.92800
O1165       O  0.59090380  0.91354190  0.51794647    -0.91600
C1166       C  0.63692937  0.94203025  0.60341563     1.17400
H1167       H  0.65454922  0.89624649  0.49775505     0.33400
H1168       H  0.59323657  0.88458091  0.57006413     0.44200
H1169       H  0.65665536  0.90486405  0.63767212     0.37800
H1170       H  0.65076798  0.83698082  0.58457466     0.34200
H1171       H  0.58930965  0.88537674  0.47021943     0.26000
H1172       H  0.60308066  0.82077990  0.61789724     0.32000
H1173       H  0.66126481  0.83769708  0.67609746     0.37900
H1174       H  0.61795376  0.92091578  0.46686214     0.32300
H1175       H  0.68208568  0.93637103  0.53329819     0.31200
H1176       H  0.68367848  0.92729112  0.61301157     0.32900
H1177       H  0.68595497  0.87218073  0.67820100     0.31900
H1178       H  0.59198046  0.92057202  0.53921480     0.35900
H1179       H  0.58790735  0.92143555  0.62549213     0.28600
H1180       H  0.67889944  0.83336514  0.49393664     0.32800
H1181       H  0.69022877  0.84359213  0.64316351     0.35700
H1182       H  0.66948857  0.92808660  0.50515618     0.28300
H1183       H  0.59457842  0.91757788  0.66255614     0.41200
H1184       H  0.58225810  0.84955109  0.54002333     0.31200
H1185       H  0.59395936  0.86689863  0.48772559     0.38800
H1186       H  0.68143878  0.89144803  0.66390689     0.30700
H1187       H  0.62382133  0.82324309  0.62554197     0.30700
H1188       H  0.68345480  0.83242642  0.53278621     0.31000
Zr1189     Zr  0.85100783  0.85714197  0.37204355     2.17500
O1190       O  0.82597295  0.83733598  0.38943840    -0.51300
O1191       O  0.85755181  0.86116028  0.43271290    -0.74600
O1192       O  0.85813849  0.82437732  0.37045116    -0.81300
O1193       O  0.81922503  0.89838887  0.37011171    -0.83100
O1194       O  0.88497895  0.82045245  0.34282375    -0.78700
O1195       O  0.82147705  0.86904067  0.38755968    -0.90300
O1196       O  0.87924573  0.88305581  0.43833301    -0.76300
O1197       O  0.88334582  0.85884737  0.37364379    -0.85800
O1198       O  0.85802081  0.88845315  0.38093876    -0.85500
O1199       O  0.86065033  0.84705466  0.31690918    -0.72200
O1200       O  0.83765067  0.87390757  0.32586988    -0.84400
Zr1201     Zr  0.88839787  0.89678977  0.28223013     2.26400
Zr1202     Zr  0.89320072  0.84939235  0.31840066     2.06300
Zr1203     Zr  0.84556649  0.90513907  0.33474529     2.10000
Zr1204     Zr  0.89022662  0.89022608  0.38249115     1.78800
O1205       O  0.81948229  0.91342526  0.30025702    -0.93200
O1206       O  0.91599781  0.87519532  0.40910108    -0.41000
O1207       O  0.87804123  0.90733932  0.33638358    -0.77600
O1208       O  0.90136395  0.88043052  0.32895446    -0.96300
O1209       O  0.88073046  0.86581197  0.27171850    -0.89600
O1210       O  0.85600012  0.89538118  0.28048910    -0.92500
C1211       C  0.86742234  0.87207011  0.45047508     1.01300
C1212       C  0.81326514  0.88439599  0.38621422     1.14200
C1213       C  0.87090930  0.81433464  0.35820413     1.05000
O1214       O  0.91918977  0.83709487  0.34870778    -0.94600
O1215       O  0.92087087  0.85653197  0.28739117    -0.90400
O1216       O  0.91864959  0.88547772  0.26794864    -0.83500
C1217       C  0.92740105  0.87054038  0.27219354     1.11600
O1218       O  0.82168879  0.84451632  0.27394302    -0.96600
Zr1219     Zr  0.84833765  0.86431828  0.27145526     1.88900
O1220       O  0.88273289  0.89233282  0.22209959    -0.73200
O1221       O  0.89513457  0.82634101  0.27420121    -0.52500
O1222       O  0.85374777  0.83584090  0.24139097    -0.97200
O1223       O  0.82130303  0.87732201  0.24529902    -0.54400
O1224       O  0.85780352  0.87427457  0.21610228    -0.73700
C1225       C  0.87086388  0.88386551  0.20421184     0.98600
O1226       O  0.91025666  0.92093187  0.26981971    -0.62600
O1227       O  0.84163596  0.93037958  0.37407423    -0.57400
O1228       O  0.88000481  0.92873437  0.27784279    -0.94100
O1229       O  0.85497391  0.93401844  0.31006738    -0.92500
O1230       O  0.88655407  0.91941214  0.41079837    -0.92800
O1231       O  0.91754411  0.90899221  0.38124174    -0.91600
C1232       C  0.86780388  0.93932991  0.29026350     1.17400
H1233       H  0.85261186  0.89292100  0.40157222     0.33400
H1234       H  0.91438943  0.88191205  0.33000556     0.44200
H1235       H  0.85134476  0.90311727  0.26280069     0.37800
H1236       H  0.85681492  0.83474010  0.31231450     0.34200
H1237       H  0.91771560  0.88172039  0.43077358     0.26000
H1238       H  0.90391107  0.81730693  0.28295202     0.32000
H1239       H  0.86278954  0.83883070  0.22367002     0.37900
H1240       H  0.87358860  0.91979331  0.41753202     0.32300
H1241       H  0.82944122  0.93532707  0.36891295     0.31200
H1242       H  0.81182400  0.92102252  0.31524832     0.32900
H1243       H  0.82106219  0.87219223  0.22214771     0.31900
H1244       H  0.91784254  0.91414188  0.35812778     0.35900
H1245       H  0.92047840  0.91911472  0.28571726     0.28600
H1246       H  0.83073405  0.82964600  0.40794157     0.32800
H1247       H  0.81896709  0.84109169  0.25026802     0.35700
H1248       H  0.84028173  0.92469994  0.39661469     0.28300
H1249       H  0.91528429  0.91816777  0.24715699     0.41200
H1250       H  0.92625605  0.84791696  0.35582857     0.31200
H1251       H  0.91141700  0.86303815  0.41577652     0.38800
H1252       H  0.82407398  0.89037501  0.24196701     0.30700
H1253       H  0.88326766  0.81995626  0.27480003     0.30700
H1254       H  0.82379529  0.82892137  0.37029347     0.31000
Zr1255     Zr  0.85301465  0.86045321  0.87508538     2.17500
O1256       O  0.83099097  0.84136403  0.90489933    -0.51300
O1257       O  0.86370775  0.86306785  0.93408575    -0.74600
O1258       O  0.85721140  0.82729298  0.86694060    -0.81300
O1259       O  0.82266486  0.90314189  0.87931741    -0.83100
O1260       O  0.88259455  0.82246349  0.83535918    -0.78700
O1261       O  0.82329609  0.87273487  0.88984854    -0.90300
O1262       O  0.88835466  0.88152137  0.93550249    -0.76300
O1263       O  0.88524956  0.86018210  0.86934116    -0.85800
O1264       O  0.86293224  0.89095099  0.88523760    -0.85500
O1265       O  0.85825200  0.85144482  0.81717292    -0.72200
O1266       O  0.83830817  0.87942738  0.83355904    -0.84400
Zr1267     Zr  0.88743301  0.90016308  0.77976701     2.26400
Zr1268     Zr  0.89074117  0.85160323  0.81176468     2.06300
Zr1269     Zr  0.84896607  0.90968284  0.84346580     2.10000
Zr1270     Zr  0.89506180  0.89070897  0.87866699     1.78800
O1271       O  0.82328901  0.92291318  0.81361203    -0.93200
O1272       O  0.92179059  0.87385177  0.89694499    -0.41000
O1273       O  0.88130906  0.90964070  0.83693114    -0.77600
O1274       O  0.90190893  0.88172760  0.82236428    -0.96300
O1275       O  0.87679495  0.87011776  0.76937897    -0.89600
O1276       O  0.85512988  0.90117846  0.78604627    -0.92500
C1277       C  0.87623182  0.87181182  0.95014594     1.01300
C1278       C  0.81573051  0.88846481  0.89152959     1.14200
C1279       C  0.86886500  0.81680944  0.85229398     1.05000
O1280       O  0.91697710  0.83648535  0.83641669    -0.94600
O1281       O  0.91734849  0.85711826  0.77743363    -0.90400
O1282       O  0.91615848  0.88654793  0.76033467    -0.83500
C1283       C  0.92412312  0.87096788  0.76228565     1.11600
O1284       O  0.81609973  0.85455761  0.78369765    -0.96600
Zr1285     Zr  0.84464801  0.87104048  0.77618295     1.88900
O1286       O  0.87764868  0.89737945  0.72060476    -0.73200
O1287       O  0.88832477  0.83088745  0.76390591    -0.52500
O1288       O  0.84499044  0.84294681  0.74341759    -0.97200
O1289       O  0.81827232  0.88809993  0.75654689    -0.54400
O1290       O  0.85238195  0.87976455  0.71897844    -0.73700
C1291       C  0.86491083  0.88907774  0.70443507     0.98600
O1292       O  0.90909415  0.92283246  0.75929784    -0.62600
O1293       O  0.84837336  0.93263668  0.88791852    -0.57400
O1294       O  0.88190334  0.93303003  0.78325806    -0.94100
O1295       O  0.86065146  0.93864454  0.82381161    -0.92500
O1296       O  0.89497736  0.91847833  0.91227048    -0.92800
O1297       O  0.92243387  0.90895407  0.87089145    -0.91600
C1298       C  0.87220454  0.94386779  0.80147276     1.17400
H1299       H  0.85931316  0.89517692  0.90735339     0.33400
H1300       H  0.91499743  0.88230747  0.82118876     0.44200
H1301       H  0.84993406  0.90977410  0.77036885     0.37800
H1302       H  0.85327772  0.83961155  0.81202081     0.34200
H1303       H  0.92584149  0.88012435  0.91778458     0.26000
H1304       H  0.89795966  0.82174950  0.76780009     0.32000
H1305       H  0.83807483  0.84573851  0.72261612     0.37900
H1306       H  0.88665124  0.92676910  0.90013654     0.32300
H1307       H  0.83657102  0.93890836  0.88513447     0.31200
H1308       H  0.82032739  0.93407535  0.82650306     0.32900
H1309       H  0.82318320  0.89866012  0.74395837     0.31900
H1310       H  0.91964955  0.91689938  0.85137769     0.35900
H1311       H  0.92022384  0.92108999  0.77295973     0.28600
H1312       H  0.83812575  0.83232559  0.91777923     0.32800
H1313       H  0.81107412  0.85283770  0.76071173     0.35700
H1314       H  0.84716260  0.92580562  0.90934328     0.28300
H1315       H  0.91247453  0.91896166  0.73616721     0.41200
H1316       H  0.92494014  0.84651948  0.84421377     0.31200
H1317       H  0.91703762  0.86199148  0.90493363     0.38800
H1318       H  0.81288782  0.89338372  0.77728550     0.30700
H1319       H  0.87682585  0.82414747  0.76765966     0.30700
H1320       H  0.82464252  0.83424695  0.88720221     0.31000
Zr1321     Zr  0.60255763  0.11746433  0.14587258     2.17500
O1322       O  0.58148097  0.09403710  0.12617922    -0.51300
O1323       O  0.60761617  0.12445811  0.08600212    -0.74600
O1324       O  0.57083829  0.12698793  0.14244487    -0.81300
O1325       O  0.64108873  0.08357175  0.15469096    -0.83100
O1326       O  0.56608097  0.15223837  0.17436494    -0.78700
O1327       O  0.61210300  0.08603205  0.13584028    -0.90300
O1328       O  0.62571150  0.14947315  0.08292395    -0.76300
O1329       O  0.60399646  0.14993256  0.14754979    -0.85800
O1330       O  0.63371633  0.12511768  0.13701080    -0.85500
O1331       O  0.59186996  0.12624904  0.20121980    -0.72200
O1332       O  0.61891319  0.10346485  0.19135605    -0.84400
Zr1333     Zr  0.64222822  0.15300869  0.23865400     2.26400
Zr1334     Zr  0.59442894  0.15886395  0.20319103     2.06300
Zr1335     Zr  0.64994769  0.11152656  0.18261644     2.10000
Zr1336     Zr  0.63510835  0.15751740  0.13909110     1.78800
O1337       O  0.66258737  0.08754615  0.21787266    -0.93200
O1338       O  0.62089272  0.18511056  0.11771191    -0.41000
O1339       O  0.65216402  0.14393430  0.18351781    -0.77600
O1340       O  0.62549293  0.16754390  0.19380464    -0.96300
O1341       O  0.61115338  0.14524285  0.24817023    -0.89600
O1342       O  0.64042029  0.12053615  0.23801185    -0.92500
C1343       C  0.61642786  0.13668457  0.06938748     1.01300
C1344       C  0.62677458  0.07692637  0.14077174     1.14200
C1345       C  0.56061163  0.13960421  0.15439605     1.05000
O1346       O  0.58522065  0.18713641  0.17630581    -0.94600
O1347       O  0.60054873  0.18433437  0.24122611    -0.90400
O1348       O  0.63017353  0.18258353  0.25635091    -0.83500
C1349       C  0.61468385  0.19071310  0.25627045     1.11600
O1350       O  0.59049334  0.08556075  0.24212911    -0.96600
Zr1351     Zr  0.60912921  0.11298226  0.24603140     1.88900
O1352       O  0.63943743  0.14396774  0.29778959    -0.73200
O1353       O  0.56995757  0.15892870  0.24483782    -0.52500
O1354       O  0.58007847  0.11640950  0.27513405    -0.97200
O1355       O  0.62350025  0.08662556  0.27216429    -0.54400
O1356       O  0.61664201  0.12333091  0.30178772    -0.73700
C1357       C  0.62827086  0.13417424  0.31493153     0.98600
O1358       O  0.66552959  0.17183385  0.26531126    -0.62600
O1359       O  0.67108666  0.10512402  0.13663525    -0.57400
O1360       O  0.67499982  0.14925937  0.22770995    -0.94100
O1361       O  0.67943713  0.12238300  0.20034178    -0.92500
O1362       O  0.66269091  0.15411241  0.10558609    -0.92800
O1363       O  0.65614058  0.18308938  0.14250108    -0.91600
C1364       C  0.68526475  0.13694549  0.21452175     1.17400
H1365       H  0.63833882  0.12035040  0.11593173     0.33400
H1366       H  0.62683356  0.18061291  0.19425961     0.44200
H1367       H  0.64812940  0.11533377  0.25519335     0.37800
H1368       H  0.57938996  0.12250012  0.20438759     0.34200
H1369       H  0.62840691  0.18866642  0.09798870     0.26000
H1370       H  0.56126207  0.16817030  0.23657457     0.32000
H1371       H  0.58148496  0.12739017  0.28941891     0.37900
H1372       H  0.67217201  0.15064177  0.12208748     0.32300
H1373       H  0.68117454  0.09832937  0.14727787     0.31200
H1374       H  0.66857725  0.07912003  0.20182282     0.32900
H1375       H  0.63323478  0.09156464  0.28680744     0.31900
H1376       H  0.66012913  0.18327680  0.16638754     0.35900
H1377       H  0.66597335  0.18319397  0.25187911     0.28600
H1378       H  0.57497627  0.09923108  0.10654386     0.32800
H1379       H  0.58805349  0.08179903  0.26573986     0.35700
H1380       H  0.67642627  0.11707837  0.13070202     0.28300
H1381       H  0.66043825  0.17550715  0.28746973     0.41200
H1382       H  0.58456013  0.18418840  0.15192589     0.31200
H1383       H  0.60926324  0.18097917  0.10771005     0.38800
H1384       H  0.63002561  0.08050920  0.25344336     0.30700
H1385       H  0.56357519  0.14717323  0.24168703     0.30700
H1386       H  0.57218083  0.09261952  0.14412892     0.31000
Zr1387     Zr  0.60575301  0.11918183  0.64558518     2.17500
O1388       O  0.58638858  0.09636210  0.61874714    -0.51300
O1389       O  0.61077954  0.12718585  0.58629929    -0.74600
O1390       O  0.57352934  0.12786038  0.64434357    -0.81300
O1391       O  0.64389807  0.08433059  0.65978739    -0.83100
O1392       O  0.56874867  0.15369256  0.67444359    -0.78700
O1393       O  0.61526581  0.08722107  0.63921915    -0.90300
O1394       O  0.63008387  0.15119147  0.58358787    -0.76300
O1395       O  0.60734077  0.15163882  0.64732072    -0.85800
O1396       O  0.63704771  0.12682825  0.63760710    -0.85500
O1397       O  0.59461769  0.12786556  0.70067496    -0.72200
O1398       O  0.62187021  0.10523948  0.69120378    -0.84400
Zr1399     Zr  0.64433152  0.15422152  0.74047827     2.26400
Zr1400     Zr  0.59719152  0.16049545  0.70262674     2.06300
Zr1401     Zr  0.65301942  0.11328651  0.68385112     2.10000
Zr1402     Zr  0.63857913  0.15925482  0.64030947     1.78800
O1403       O  0.66744638  0.08965597  0.71749483    -0.93200
O1404       O  0.62458790  0.18696596  0.61881180    -0.41000
O1405       O  0.65488118  0.14566107  0.68561291    -0.77600
O1406       O  0.62842555  0.16910596  0.69500001    -0.96300
O1407       O  0.61319155  0.14647151  0.74809236    -0.89600
O1408       O  0.64286790  0.12180899  0.73921634    -0.92500
C1409       C  0.62016597  0.13897749  0.56976685     1.01300
C1410       C  0.62966350  0.07779525  0.64543030     1.14200
C1411       C  0.56313690  0.14053338  0.65585654     1.05000
O1412       O  0.58945920  0.18856707  0.67340786    -0.94600
O1413       O  0.60251482  0.18547689  0.74198455    -0.90400
O1414       O  0.63177962  0.18291292  0.75963116    -0.83500
C1415       C  0.61637769  0.19102116  0.75888929     1.11600
O1416       O  0.59130151  0.08799516  0.74025822    -0.96600
Zr1417     Zr  0.61149085  0.11420557  0.74556549     1.88900
O1418       O  0.64066591  0.14527334  0.79961031    -0.73200
O1419       O  0.57227146  0.16129653  0.74331548    -0.52500
O1420       O  0.58327717  0.11666428  0.77766196    -0.97200
O1421       O  0.62633131  0.08666496  0.76580146    -0.54400
O1422       O  0.61909764  0.12326488  0.80198610    -0.73700
C1423       C  0.62993789  0.13460837  0.81595100     0.98600
O1424       O  0.66771469  0.17347929  0.76582512    -0.62600
O1425       O  0.67358900  0.10777251  0.63664145    -0.57400
O1426       O  0.67712301  0.15106964  0.73207423    -0.94100
O1427       O  0.68217617  0.12510825  0.70217217    -0.92500
O1428       O  0.66798892  0.15563281  0.61267937    -0.92800
O1429       O  0.65920878  0.18522275  0.63992526    -0.91600
C1430       C  0.68764072  0.13938144  0.71788311     1.17400
H1431       H  0.64176222  0.12210242  0.61656965     0.33400
H1432       H  0.62978512  0.18216538  0.69607605     0.44200
H1433       H  0.65037698  0.11652186  0.75662007     0.37800
H1434       H  0.58216747  0.12407235  0.70398258     0.34200
H1435       H  0.62926339  0.18819489  0.59543358     0.26000
H1436       H  0.56333482  0.16992518  0.73375341     0.32000
H1437       H  0.58365178  0.12894059  0.78797453     0.37900
H1438       H  0.66559278  0.14797129  0.59257720     0.32300
H1439       H  0.68413242  0.10145084  0.64673617     0.31200
H1440       H  0.67927725  0.08743147  0.70626268     0.32900
H1441       H  0.63465435  0.09072945  0.78394847     0.31900
H1442       H  0.65601145  0.19231123  0.66036675     0.35900
H1443       H  0.66728118  0.18511364  0.75323161     0.28600
H1444       H  0.57983048  0.10277359  0.60047221     0.32800
H1445       H  0.59098190  0.08226277  0.76289619     0.35700
H1446       H  0.67832332  0.11995729  0.63055915     0.28300
H1447       H  0.66324949  0.17647653  0.78876808     0.41200
H1448       H  0.57943992  0.19387730  0.68691253     0.31200
H1449       H  0.61156930  0.18389776  0.61595371     0.38800
H1450       H  0.63443627  0.08291448  0.74705957     0.30700
H1451       H  0.56633525  0.14922477  0.74155094     0.30700
H1452       H  0.57695410  0.09322818  0.63568053     0.31000
Zr1453     Zr  0.60171606  0.38567166  0.48482139     2.17500
O1454       O  0.58110044  0.40767990  0.51052221    -0.51300
O1455       O  0.60801048  0.37728943  0.54381693    -0.74600
O1456       O  0.56943069  0.37615815  0.48571855    -0.81300
O1457       O  0.64067273  0.42040045  0.47588773    -0.83100
O1458       O  0.56555789  0.35170350  0.45128806    -0.78700
O1459       O  0.61162075  0.41734445  0.49453287    -0.90300
O1460       O  0.62726383  0.35330281  0.54400677    -0.76300
O1461       O  0.60390498  0.35329605  0.48030127    -0.85800
O1462       O  0.63316288  0.37845248  0.49105337    -0.85500
O1463       O  0.59085971  0.37795621  0.42907955    -0.72200
O1464       O  0.61757991  0.40106373  0.44008059    -0.84400
Zr1465     Zr  0.64115748  0.35354473  0.38642299     2.26400
Zr1466     Zr  0.59420183  0.34548093  0.42426690     2.06300
Zr1467     Zr  0.64890774  0.39326603  0.44588568     2.10000
Zr1468     Zr  0.63522240  0.34618937  0.48640926     1.78800
O1469       O  0.66108714  0.41843320  0.41272712    -0.93200
O1470       O  0.62081449  0.31837790  0.50675698    -0.41000
O1471       O  0.65143946  0.36106681  0.44203461    -0.77600
O1472       O  0.62547652  0.33740621  0.43101460    -0.96300
O1473       O  0.60983005  0.36087753  0.37970290    -0.89600
O1474       O  0.63876798  0.38587872  0.39018071    -0.92500
C1475       C  0.61778537  0.36539564  0.55925629     1.01300
C1476       C  0.62634584  0.42664711  0.49010963     1.14200
C1477       C  0.55946394  0.36390066  0.47144563     1.05000
O1478       O  0.58487264  0.31791331  0.45374718    -0.94600
O1479       O  0.60046528  0.32032218  0.38601042    -0.90400
O1480       O  0.62921198  0.32435511  0.36624300    -0.83500
C1481       C  0.61424811  0.31532469  0.36831814     1.11600
O1482       O  0.58612849  0.41838815  0.39154543    -0.96600
Zr1483     Zr  0.60721496  0.39302832  0.38515033     1.88900
O1484       O  0.63746564  0.36506848  0.32871063    -0.73200
O1485       O  0.57034364  0.34340675  0.38176629    -0.52500
O1486       O  0.57864357  0.38857701  0.35505202    -0.97200
O1487       O  0.62007868  0.42202808  0.36686519    -0.54400
O1488       O  0.61565864  0.38678850  0.32794376    -0.73700
C1489       C  0.62697022  0.37626654  0.31319072     0.98600
O1490       O  0.66424570  0.33610394  0.35627230    -0.62600
O1491       O  0.67137530  0.39750128  0.49052098    -0.57400
O1492       O  0.67395451  0.35703501  0.39860908    -0.94100
O1493       O  0.67841722  0.38376943  0.42628298    -0.92500
O1494       O  0.66374543  0.34892061  0.51725960    -0.92800
O1495       O  0.65550748  0.32028490  0.47966163    -0.91600
C1496       C  0.68428889  0.36923400  0.41220157     1.17400
H1497       H  0.63792376  0.38285080  0.51225503     0.33400
H1498       H  0.62718094  0.32441649  0.42932284     0.44200
H1499       H  0.64607917  0.39187852  0.37319364     0.37800
H1500       H  0.57835721  0.38155821  0.42608210     0.34200
H1501       H  0.62750251  0.31529258  0.52767231     0.26000
H1502       H  0.56180309  0.33409093  0.39052020     0.32000
H1503       H  0.58070441  0.37786845  0.34034449     0.37900
H1504       H  0.66285569  0.36058809  0.52968067     0.32300
H1505       H  0.67824308  0.40853405  0.48384323     0.31200
H1506       H  0.66909743  0.42516316  0.42849397     0.32900
H1507       H  0.62810585  0.41907257  0.34752470     0.31900
H1508       H  0.66368917  0.32376890  0.46082513     0.35900
H1509       H  0.66461550  0.32409110  0.36757715     0.28600
H1510       H  0.57467609  0.40113148  0.52881681     0.32800
H1511       H  0.58443115  0.42340717  0.36854409     0.35700
H1512       H  0.66446643  0.40125657  0.51084625     0.28300
H1513       H  0.65908474  0.33363444  0.33365447     0.41200
H1514       H  0.59530750  0.30951425  0.45141571     0.31200
H1515       H  0.60863859  0.32217596  0.51477303     0.38800
H1516       H  0.62848448  0.42561170  0.38521570     0.30700
H1517       H  0.56360367  0.35501652  0.38352048     0.30700
H1518       H  0.57168532  0.41030367  0.49334972     0.31000
Zr1519     Zr  0.60178700  0.38740177  0.98240414     2.17500
O1520       O  0.58219973  0.41000629  0.00921474    -0.51300
O1521       O  0.60707417  0.38035790  0.04212282    -0.74600
O1522       O  0.56922616  0.37908630  0.98294368    -0.81300
O1523       O  0.64065618  0.42170223  0.97115721    -0.83100
O1524       O  0.56484564  0.35426409  0.94965936    -0.78700
O1525       O  0.61148978  0.41911026  0.98948506    -0.90300
O1526       O  0.62698880  0.35699231  0.04715969    -0.76300
O1527       O  0.60325487  0.35497434  0.98169348    -0.85800
O1528       O  0.63299307  0.38000963  0.99160951    -0.85500
O1529       O  0.59182366  0.37860152  0.92664631    -0.72200
O1530       O  0.61861662  0.40105804  0.93687865    -0.84400
Zr1531     Zr  0.64227331  0.35144528  0.89113976     2.26400
Zr1532     Zr  0.59411278  0.34598838  0.92586911     2.06300
Zr1533     Zr  0.64967262  0.39325385  0.94591172     2.10000
Zr1534     Zr  0.63438254  0.34756597  0.99069930     1.78800
O1535       O  0.66309150  0.41635179  0.90935502    -0.93200
O1536       O  0.61838668  0.32150984  0.01466211    -0.41000
O1537       O  0.65164006  0.36091187  0.94615700    -0.77600
O1538       O  0.62506223  0.33733408  0.93612214    -0.96300
O1539       O  0.61137004  0.35919054  0.88091385    -0.89600
O1540       O  0.64079449  0.38386260  0.89041768    -0.92500
C1541       C  0.61689214  0.36943257  0.05968088     1.01300
C1542       C  0.62620091  0.42827030  0.98453231     1.14200
C1543       C  0.55896082  0.36695691  0.96909043     1.05000
O1544       O  0.58280550  0.31928990  0.95567287    -0.94600
O1545       O  0.60088544  0.31949596  0.89099623    -0.90400
O1546       O  0.63052955  0.32161713  0.87575526    -0.83500
C1547       C  0.61520943  0.31319586  0.87650624     1.11600
O1548       O  0.58762649  0.41624405  0.88266990    -0.96600
Zr1549     Zr  0.60962166  0.39145713  0.88182710     1.88900
O1550       O  0.63904954  0.35934406  0.83137818    -0.73200
O1551       O  0.57145269  0.34451363  0.88111794    -0.52500
O1552       O  0.58308349  0.38530716  0.84678265    -0.97200
O1553       O  0.62326016  0.42033000  0.86487212    -0.54400
O1554       O  0.62032974  0.38369335  0.82603286    -0.73700
C1555       C  0.63039300  0.37113920  0.81370460     0.98600
O1556       O  0.66582601  0.33302799  0.86434480    -0.62600
O1557       O  0.67001991  0.40086194  0.99240721    -0.57400
O1558       O  0.67488908  0.35491718  0.90382562    -0.94100
O1559       O  0.67938240  0.38145220  0.93204969    -0.92500
O1560       O  0.66342639  0.34937020  0.02002840    -0.92800
O1561       O  0.65315741  0.32036636  0.98732014    -0.91600
C1562       C  0.68522834  0.36676422  0.91834087     1.17400
H1563       H  0.63760434  0.38508585  0.01242465     0.33400
H1564       H  0.62634958  0.32427135  0.93646647     0.44200
H1565       H  0.64869154  0.38888290  0.87324579     0.37800
H1566       H  0.57950180  0.38250455  0.92257076     0.34200
H1567       H  0.62547259  0.31823464  0.03501480     0.26000
H1568       H  0.56203188  0.33604958  0.88971736     0.32000
H1569       H  0.58526733  0.39199808  0.82544047     0.37900
H1570       H  0.67213800  0.35389921  0.00285489     0.32300
H1571       H  0.67985035  0.40819120  0.98198088     0.31200
H1572       H  0.66821197  0.42554805  0.92499368     0.32900
H1573       H  0.63496652  0.41708953  0.85409674     0.31900
H1574       H  0.65877005  0.32093384  0.96457697     0.35900
H1575       H  0.66538528  0.32108668  0.87588472     0.28600
H1576       H  0.57651223  0.40378467  0.02874824     0.32800
H1577       H  0.58747649  0.42119762  0.85940484     0.35700
H1578       H  0.67589338  0.38923116  0.99862106     0.28300
H1579       H  0.66137030  0.33053783  0.84119919     0.41200
H1580       H  0.59383168  0.31215603  0.96103236     0.31200
H1581       H  0.60686450  0.32649146  0.02371412     0.38800
H1582       H  0.62673776  0.42630913  0.88635789     0.30700
H1583       H  0.56551072  0.35658857  0.88131841     0.30700
H1584       H  0.57212120  0.41233724  0.99324658     0.31000
Zr1585     Zr  0.39721595  0.61705814  0.49204311     2.17500
O1586       O  0.41446181  0.59822446  0.53135062    -0.51300
O1587       O  0.38869375  0.62617282  0.54952784    -0.74600
O1588       O  0.42938652  0.62576998  0.49401890    -0.81300
O1589       O  0.36060448  0.58071359  0.48283579    -0.83100
O1590       O  0.43399993  0.65142598  0.46303853    -0.78700
O1591       O  0.39036469  0.58456376  0.49642732    -0.90300
O1592       O  0.36752594  0.64851929  0.54854983    -0.76300
O1593       O  0.39417785  0.64925293  0.48714062    -0.85800
O1594       O  0.36539520  0.62294534  0.49549032    -0.85500
O1595       O  0.40985488  0.62459868  0.43734234    -0.72200
O1596       O  0.38350499  0.60061319  0.44624452    -0.84400
Zr1597     Zr  0.36049048  0.64684868  0.38934781     2.26400
Zr1598     Zr  0.40583663  0.65699884  0.43233280     2.06300
Zr1599     Zr  0.35183526  0.60694725  0.44925631     2.10000
Zr1600     Zr  0.36240000  0.65513770  0.48969841     1.78800
O1601       O  0.34235491  0.58057137  0.41624696    -0.93200
O1602       O  0.37550648  0.68285023  0.51344236    -0.41000
O1603       O  0.34877447  0.63912623  0.44387523    -0.77600
O1604       O  0.37398217  0.66390083  0.43518835    -0.96300
O1605       O  0.39218295  0.64070648  0.38655505    -0.89600
O1606       O  0.36333280  0.61454600  0.39421015    -0.92500
C1607       C  0.37765209  0.63720169  0.56419745     1.01300
C1608       C  0.37579825  0.57490662  0.49445192     1.14200
C1609       C  0.43962533  0.63847727  0.48212699     1.05000
O1610       O  0.41097468  0.68529042  0.46295976    -0.94600
O1611       O  0.40005075  0.68090702  0.39091318    -0.90400
O1612       O  0.37191471  0.67615016  0.36894443    -0.83500
C1613       C  0.38671804  0.68538188  0.37164176     1.11600
O1614       O  0.41384264  0.58201392  0.40415930    -0.96600
Zr1615     Zr  0.39522798  0.60866065  0.39212341     1.88900
O1616       O  0.36667419  0.63587847  0.33189550    -0.73200
O1617       O  0.43147239  0.66138716  0.39399562    -0.52500
O1618       O  0.42555056  0.61116254  0.36781778    -0.97200
O1619       O  0.38297011  0.58100571  0.36660077    -0.54400
O1620       O  0.39150755  0.61771222  0.33411693    -0.73700
C1621       C  0.37985579  0.62717724  0.31789011     0.98600
O1622       O  0.33717912  0.66263186  0.35689867    -0.62600
O1623       O  0.32747782  0.60189890  0.49015223    -0.57400
O1624       O  0.32768184  0.64289780  0.39864708    -0.94100
O1625       O  0.32288144  0.61619971  0.42630366    -0.92500
O1626       O  0.33204822  0.65070239  0.51312749    -0.92800
O1627       O  0.34189214  0.68090527  0.48344223    -0.91600
C1628       C  0.31723054  0.63065957  0.41162146     1.17400
H1629       H  0.36011458  0.61847955  0.51624367     0.33400
H1630       H  0.37194939  0.67679378  0.43262048     0.44200
H1631       H  0.35670497  0.60835357  0.37654216     0.37800
H1632       H  0.42248379  0.62125691  0.43530295     0.34200
H1633       H  0.36692631  0.68659798  0.53145889     0.26000
H1634       H  0.43763358  0.67251175  0.40232615     0.32000
H1635       H  0.42868259  0.62420416  0.37008236     0.37900
H1636       H  0.32475769  0.64562170  0.49431789     0.32300
H1637       H  0.32192453  0.59016738  0.48336535     0.31200
H1638       H  0.33906505  0.57115591  0.43307828     0.32900
H1639       H  0.37509636  0.58514572  0.34787521     0.31900
H1640       H  0.34838309  0.68966538  0.46872246     0.35900
H1641       H  0.33632808  0.67495042  0.36695597     0.28600
H1642       H  0.42032382  0.60677847  0.54734486     0.32800
H1643       H  0.41759909  0.57712248  0.38188900     0.35700
H1644       H  0.33359231  0.59924983  0.51185109     0.28300
H1645       H  0.34250973  0.66458012  0.33420843     0.41200
H1646       H  0.40026197  0.69292008  0.45774841     0.31200
H1647       H  0.38646712  0.67881005  0.52581175     0.38800
H1648       H  0.37446468  0.57604699  0.38369877     0.30700
H1649       H  0.44006996  0.65140736  0.39899679     0.30700
H1650       H  0.42459683  0.59298817  0.51805798     0.31000
Zr1651     Zr  0.40238267  0.61616946  0.98566880     2.17500
O1652       O  0.42281254  0.59421249  0.01195930    -0.51300
O1653       O  0.39928245  0.62345768  0.04603267    -0.74600
O1654       O  0.43457317  0.62485279  0.98255469    -0.81300
O1655       O  0.36389760  0.58151003  0.97702622    -0.83100
O1656       O  0.43749644  0.65130344  0.95364137    -0.78700
O1657       O  0.39360889  0.58411440  0.99169906    -0.90300
O1658       O  0.38091267  0.64794371  0.05213659    -0.76300
O1659       O  0.40053697  0.64856613  0.98572639    -0.85800
O1660       O  0.37145038  0.62326159  0.99792678    -0.85500
O1661       O  0.41107825  0.62553551  0.92938349    -0.72200
O1662       O  0.38459068  0.60256393  0.94154727    -0.84400
Zr1663     Zr  0.35936814  0.65205946  0.89744484     2.26400
Zr1664     Zr  0.40808233  0.65812615  0.92947184     2.06300
Zr1665     Zr  0.35375023  0.61011841  0.95338083     2.10000
Zr1666     Zr  0.36965612  0.65569158  0.99709970     1.78800
O1667       O  0.33872930  0.58841835  0.91605594    -0.93200
O1668       O  0.38525146  0.68345690  0.01432900    -0.41000
O1669       O  0.35196421  0.64241196  0.95340956    -0.77600
O1670       O  0.37717238  0.66632278  0.94148719    -0.96300
O1671       O  0.39025464  0.64477746  0.88538005    -0.89600
O1672       O  0.36123396  0.61956715  0.89702683    -0.92500
C1673       C  0.39109239  0.63547551  0.06416772     1.01300
C1674       C  0.37882870  0.57486792  0.98830702     1.14200
C1675       C  0.44412419  0.63809604  0.97071691     1.05000
O1676       O  0.41637037  0.68595501  0.95921561    -0.94600
O1677       O  0.40147957  0.68354691  0.89239415    -0.90400
O1678       O  0.37169013  0.68136514  0.87861869    -0.83500
C1679       C  0.38716822  0.68958223  0.87773327     1.11600
O1680       O  0.41222038  0.58596559  0.88536767    -0.96600
Zr1681     Zr  0.39239803  0.61252996  0.88610192     1.88900
O1682       O  0.35982652  0.64319456  0.83749657    -0.73200
O1683       O  0.43192143  0.66095880  0.88690181    -0.52500
O1684       O  0.41974687  0.61820818  0.85278275    -0.97200
O1685       O  0.37865983  0.58446557  0.86523864    -0.54400
O1686       O  0.38155751  0.62161041  0.83140436    -0.73700
C1687       C  0.36988776  0.63272197  0.81930583     0.98600
O1688       O  0.33558865  0.67185542  0.87543101    -0.62600
O1689       O  0.33295183  0.60111583  0.99849105    -0.57400
O1690       O  0.32696610  0.64857934  0.91331436    -0.94100
O1691       O  0.32426789  0.62421319  0.94830534    -0.92500
O1692       O  0.34317975  0.65081965  0.03305514    -0.92800
O1693       O  0.34755515  0.68027117  0.99996641    -0.91600
C1694       C  0.31760491  0.63795230  0.93271090     1.17400
H1695       H  0.36761092  0.61828069  0.01936288     0.33400
H1696       H  0.37572750  0.67937964  0.94141242     0.44200
H1697       H  0.35314736  0.61435668  0.88040341     0.37800
H1698       H  0.42339150  0.62198485  0.92412031     0.34200
H1699       H  0.37780112  0.68843734  0.03300984     0.26000
H1700       H  0.44084997  0.66958783  0.89665248     0.32000
H1701       H  0.41760067  0.63006189  0.84162442     0.37900
H1702       H  0.33818749  0.63893056  0.02573276     0.32300
H1703       H  0.32820535  0.58906161  0.99155166     0.31200
H1704       H  0.32610443  0.58762857  0.92467970     0.32900
H1705       H  0.36834422  0.58835733  0.85095670     0.31900
H1706       H  0.34489216  0.68321133  0.97607200     0.35900
H1707       H  0.33628211  0.68312677  0.88912253     0.28600
H1708       H  0.42951066  0.60101851  0.02962436     0.32800
H1709       H  0.41464379  0.58335349  0.86121433     0.35700
H1710       H  0.34071667  0.59856777  0.01833050     0.28300
H1711       H  0.33966672  0.67549140  0.85254358     0.41200
H1712       H  0.42176931  0.68181251  0.98076908     0.31200
H1713       H  0.39654301  0.67925482  0.02541894     0.38800
H1714       H  0.37289679  0.57890504  0.88538323     0.30700
H1715       H  0.43822994  0.64907090  0.88684046     0.30700
H1716       H  0.43205445  0.59117453  0.99463009     0.31000
Zr1717     Zr  0.40161074  0.88319738  0.14843834     2.17500
O1718       O  0.42158365  0.90577272  0.12244424    -0.51300
O1719       O  0.39528751  0.87663261  0.08900117    -0.74600
O1720       O  0.43388904  0.87437008  0.14582118    -0.81300
O1721       O  0.36323148  0.91718885  0.15991261    -0.83100
O1722       O  0.43877101  0.85010854  0.18027201    -0.78700
O1723       O  0.39241735  0.91495184  0.14164724    -0.90300
O1724       O  0.37670734  0.85199179  0.08536308    -0.76300
O1725       O  0.39940015  0.85076580  0.14875441    -0.85800
O1726       O  0.37012058  0.87633511  0.14124648    -0.85500
O1727       O  0.41269456  0.87396103  0.20304886    -0.72200
O1728       O  0.38584342  0.89716946  0.19493752    -0.84400
Zr1729     Zr  0.36276031  0.84743827  0.24262016     2.26400
Zr1730     Zr  0.40960058  0.84132391  0.20362931     2.06300
Zr1731     Zr  0.35453093  0.88944362  0.18838892     2.10000
Zr1732     Zr  0.36794218  0.84398504  0.14196523     1.78800
O1733       O  0.34358989  0.91328526  0.22607024    -0.93200
O1734       O  0.38042397  0.81616602  0.11785797    -0.41000
O1735       O  0.35210561  0.85711797  0.18842914    -0.77600
O1736       O  0.37830870  0.83323568  0.19573228    -0.96300
O1737       O  0.39397677  0.85497186  0.25009082    -0.89600
O1738       O  0.36477222  0.87992987  0.24288355    -0.92500
C1739       C  0.38605435  0.86484166  0.07221047     1.01300
C1740       C  0.37763669  0.92391628  0.14647525     1.14200
C1741       C  0.44431426  0.86264787  0.16019413     1.05000
O1742       O  0.41976679  0.81560378  0.16980937    -0.94600
O1743       O  0.40363761  0.81424431  0.23733535    -0.90400
O1744       O  0.37489954  0.81744691  0.25726000    -0.83500
C1745       C  0.38981452  0.80846047  0.25410149     1.11600
O1746       O  0.41472587  0.91484993  0.24529246    -0.96600
Zr1747     Zr  0.39626703  0.88727356  0.24874126     1.88900
O1748       O  0.36680283  0.85641440  0.30180762    -0.73200
O1749       O  0.43122743  0.83667670  0.24921917    -0.52500
O1750       O  0.42644567  0.88449213  0.27372383    -0.97200
O1751       O  0.38238241  0.91340625  0.27673363    -0.54400
O1752       O  0.39017829  0.87646566  0.30449040    -0.73700
C1753       C  0.37849131  0.86595685  0.31826639     0.98600
O1754       O  0.34040031  0.82896759  0.27281389    -0.62600
O1755       O  0.33099309  0.89660095  0.14712665    -0.57400
O1756       O  0.32988327  0.85074314  0.23237811    -0.94100
O1757       O  0.32524903  0.87777885  0.20592592    -0.92500
O1758       O  0.33953123  0.84963983  0.11215025    -0.92800
O1759       O  0.34622366  0.81898588  0.14503078    -0.91600
C1760       C  0.31947174  0.86300109  0.21948412     1.17400
H1761       H  0.36539773  0.88152510  0.12065992     0.33400
H1762       H  0.37674094  0.82019578  0.19547690     0.44200
H1763       H  0.35739691  0.88504268  0.26072460     0.37800
H1764       H  0.42509863  0.87781640  0.20648906     0.34200
H1765       H  0.37414755  0.81474137  0.09588547     0.26000
H1766       H  0.44285294  0.83350345  0.23807353     0.32000
H1767       H  0.42487479  0.87664283  0.29383043     0.37900
H1768       H  0.34048098  0.86225710  0.10358360     0.32300
H1769       H  0.32517427  0.90783024  0.15572614     0.31200
H1770       H  0.33601866  0.92121839  0.21162406     0.32900
H1771       H  0.37285923  0.90837032  0.29178423     0.31900
H1772       H  0.34656453  0.81499609  0.16890590     0.35900
H1773       H  0.33974750  0.81728216  0.26037508     0.28600
H1774       H  0.42784561  0.89951279  0.10356283     0.32800
H1775       H  0.41717999  0.91855166  0.26893371     0.35700
H1776       H  0.33751809  0.90048215  0.12643702     0.28300
H1777       H  0.34610443  0.82589046  0.29472152     0.41200
H1778       H  0.42970241  0.81011158  0.18319644     0.31200
H1779       H  0.39310993  0.81929480  0.11173064     0.38800
H1780       H  0.37562186  0.91976547  0.25866916     0.30700
H1781       H  0.43317093  0.84892356  0.25892429     0.30700
H1782       H  0.43118836  0.90849105  0.13923267     0.31000
Zr1783     Zr  0.40203226  0.88366765  0.64890782     2.17500
O1784       O  0.42312570  0.90493036  0.62201497    -0.51300
O1785       O  0.39792984  0.87547130  0.58939712    -0.74600
O1786       O  0.43420048  0.87483875  0.65137342    -0.81300
O1787       O  0.36342912  0.91825482  0.65299095    -0.83100
O1788       O  0.43754258  0.84950153  0.68342835    -0.78700
O1789       O  0.39278816  0.91476505  0.63656071    -0.90300
O1790       O  0.37700729  0.85287366  0.58575008    -0.76300
O1791       O  0.39903951  0.85137962  0.65053132    -0.85800
O1792       O  0.37063006  0.87740107  0.63970739    -0.85500
O1793       O  0.41137788  0.87525811  0.70509149    -0.72200
O1794       O  0.38578891  0.89899605  0.69343728    -0.84400
Zr1795     Zr  0.35997491  0.85034069  0.74233933     2.26400
Zr1796     Zr  0.40772736  0.84276527  0.70660944     2.06300
Zr1797     Zr  0.35453850  0.89178595  0.68489479     2.10000
Zr1798     Zr  0.36759204  0.84516326  0.64214503     1.78800
O1799       O  0.34342724  0.91629032  0.72087828    -0.93200
O1800       O  0.38018490  0.81735599  0.61817235    -0.41000
O1801       O  0.35144695  0.85956616  0.68670124    -0.77600
O1802       O  0.37638272  0.83520677  0.69744121    -0.96300
O1803       O  0.39124084  0.85723834  0.75135180    -0.89600
O1804       O  0.36266267  0.88280167  0.74097559    -0.92500
C1805       C  0.38796420  0.86436161  0.57244523     1.01300
C1806       C  0.37805623  0.92403667  0.63902521     1.14200
C1807       C  0.44397341  0.86230251  0.66488312     1.05000
O1808       O  0.41521998  0.81607858  0.67290582    -0.94600
O1809       O  0.40080143  0.81700107  0.74257994    -0.90400
O1810       O  0.37180997  0.82087545  0.76111086    -0.83500
C1811       C  0.38672817  0.81180253  0.75922107     1.11600
O1812       O  0.41461826  0.91557089  0.74681041    -0.96600
Zr1813     Zr  0.39410678  0.88945408  0.74894458     1.88900
O1814       O  0.36232997  0.85946669  0.80194236    -0.73200
O1815       O  0.43070309  0.83846144  0.75015130    -0.52500
O1816       O  0.42240263  0.88449382  0.77955505    -0.97200
O1817       O  0.38075414  0.91754912  0.77045464    -0.54400
O1818       O  0.38466006  0.88067236  0.80476444    -0.73700
C1819       C  0.37317293  0.86989545  0.81862508     0.98600
O1820       O  0.33584339  0.83090671  0.76468947    -0.62600
O1821       O  0.33110487  0.89887061  0.64338996    -0.57400
O1822       O  0.32739175  0.85498461  0.73006501    -0.94100
O1823       O  0.32484698  0.88021446  0.69718745    -0.92500
O1824       O  0.33944990  0.85099547  0.61170541    -0.92800
O1825       O  0.34612010  0.81995878  0.64578031    -0.91600
C1826       C  0.31809514  0.86646069  0.71252390     1.17400
H1827       H  0.36644955  0.88227075  0.61844418     0.33400
H1828       H  0.37450898  0.82220636  0.69808916     0.44200
H1829       H  0.35496999  0.88839118  0.75783326     0.37800
H1830       H  0.42380002  0.87875048  0.70952200     0.34200
H1831       H  0.37318186  0.81531111  0.59714581     0.26000
H1832       H  0.43870006  0.82872634  0.74131200     0.32000
H1833       H  0.42005822  0.88896186  0.80276743     0.37900
H1834       H  0.33186462  0.85803393  0.62772573     0.32300
H1835       H  0.32746942  0.91158150  0.64815952     0.31200
H1836       H  0.33669661  0.92444371  0.70544657     0.32900
H1837       H  0.37002667  0.91378872  0.78390193     0.31900
H1838       H  0.34200124  0.81998878  0.66962405     0.35900
H1839       H  0.33707132  0.81912367  0.75273293     0.28600
H1840       H  0.42956839  0.89793465  0.60426891     0.32800
H1841       H  0.41615011  0.91965082  0.77050293     0.35700
H1842       H  0.33745021  0.89943838  0.62132921     0.28300
H1843       H  0.33927442  0.82832147  0.78836105     0.41200
H1844       H  0.40394142  0.80869568  0.67269624     0.31200
H1845       H  0.39249783  0.82079799  0.61023819     0.38800
H1846       H  0.37564332  0.92362368  0.75028890     0.30700
H1847       H  0.43827829  0.84961458  0.74957693     0.30700
H1848       H  0.43249202  0.90789861  0.63911422     0.31000
Zr1849     Zr  0.34733186  0.13876300  0.01833037     2.17500
O1850       O  0.32236479  0.15703511  0.99622015    -0.51300
O1851       O  0.35585628  0.13652317  0.95837779    -0.74600
O1852       O  0.35285864  0.17190482  0.02066378    -0.81300
O1853       O  0.31639537  0.09637552  0.02265609    -0.83100
O1854       O  0.37970761  0.17688936  0.04751423    -0.78700
O1855       O  0.31808856  0.12547577  0.00408485    -0.90300
O1856       O  0.37914169  0.11648032  0.95335301    -0.76300
O1857       O  0.37964399  0.13738226  0.01600202    -0.85800
O1858       O  0.35482226  0.10744181  0.01027933    -0.85500
O1859       O  0.35675765  0.14958405  0.07310500    -0.72200
O1860       O  0.33426272  0.12242192  0.06543834    -0.84400
Zr1861     Zr  0.38617653  0.10171146  0.10995585     2.26400
Zr1862     Zr  0.38935855  0.14811740  0.07028909     2.06300
Zr1863     Zr  0.34299273  0.09135332  0.05811855     2.10000
Zr1864     Zr  0.38701619  0.10600707  0.00886649     1.78800
O1865       O  0.31764348  0.08388445  0.09531015    -0.93200
O1866       O  0.41515647  0.11789253  0.98480193    -0.41000
O1867       O  0.37552028  0.08990814  0.05669216    -0.77600
O1868       O  0.39831921  0.11716403  0.06129501    -0.96300
O1869       O  0.37743535  0.13246718  0.11840736    -0.89600
O1870       O  0.35364373  0.10166624  0.11206980    -0.92500
C1871       C  0.36745513  0.12740012  0.94084892     1.01300
C1872       C  0.30992412  0.11006092  0.00652754     1.14200
C1873       C  0.36539375  0.18245391  0.03238722     1.05000
O1874       O  0.41350648  0.16090565  0.03543740    -0.94600
O1875       O  0.41802040  0.14254450  0.09796155    -0.90400
O1876       O  0.41685597  0.11408735  0.12010793    -0.83500
C1877       C  0.42525764  0.12906335  0.11337778     1.11600
O1878       O  0.31605926  0.14850612  0.12136146    -0.96600
Zr1879     Zr  0.34501106  0.13245622  0.11950098     1.88900
O1880       O  0.38081030  0.10755044  0.17005664    -0.73200
O1881       O  0.39388726  0.17015794  0.11551911    -0.52500
O1882       O  0.34338819  0.16220997  0.14637375    -0.97200
O1883       O  0.32249673  0.11356682  0.14834525    -0.54400
O1884       O  0.35874734  0.12899680  0.17435861    -0.73700
C1885       C  0.37107253  0.11882868  0.18705140     0.98600
O1886       O  0.40783947  0.07858380  0.12795871    -0.62600
O1887       O  0.33749763  0.06432299  0.02382551    -0.57400
O1888       O  0.37906368  0.06954323  0.11421115    -0.94100
O1889       O  0.35455542  0.06321741  0.08129026    -0.92500
O1890       O  0.37958637  0.07835808  0.97777335    -0.92800
O1891       O  0.41194265  0.08424345  0.00979627    -0.91600
C1892       C  0.36748476  0.05850804  0.10116913     1.17400
H1893       H  0.34963921  0.10275800  0.98959433     0.33400
H1894       H  0.41133014  0.11591370  0.05935685     0.44200
H1895       H  0.34935632  0.09395473  0.13018215     0.37800
H1896       H  0.35259260  0.16174843  0.07785216     0.34200
H1897       H  0.41644436  0.11159795  0.96278531     0.26000
H1898       H  0.40309852  0.17873294  0.10651506     0.32000
H1899       H  0.35590984  0.16707690  0.14490321     0.37900
H1900       H  0.37511979  0.06976645  0.99519047     0.32300
H1901       H  0.32500514  0.06038481  0.02971951     0.31200
H1902       H  0.32017472  0.07138401  0.10329287     0.32900
H1903       H  0.31148650  0.11400077  0.13401185     0.31900
H1904       H  0.41357848  0.08131229  0.03402083     0.35900
H1905       H  0.41818930  0.07940004  0.11197600     0.28600
H1906       H  0.32772529  0.16500505  0.97864455     0.32800
H1907       H  0.31155659  0.14817697  0.09780451     0.35700
H1908       H  0.33662875  0.06877342  0.00027851     0.28300
H1909       H  0.41269043  0.08285679  0.14990156     0.41200
H1910       H  0.42154920  0.15048484  0.03022599     0.31200
H1911       H  0.41233349  0.13064292  0.97873931     0.38800
H1912       H  0.31920801  0.12049702  0.16893145     0.30700
H1913       H  0.38251572  0.17731721  0.11620659     0.30700
H1914       H  0.31872428  0.16530100  0.01481233     0.31000
Zr1915     Zr  0.35328127  0.14074881  0.51570694     2.17500
O1916       O  0.33161366  0.15997832  0.48574525    -0.51300
O1917       O  0.36361446  0.13838799  0.45678007    -0.74600
O1918       O  0.35811036  0.17374790  0.52406509    -0.81300
O1919       O  0.32052787  0.09958017  0.51542897    -0.83100
O1920       O  0.38478577  0.17784875  0.55202149    -0.78700
O1921       O  0.32354618  0.12906786  0.49950684    -0.90300
O1922       O  0.38815007  0.11979280  0.45335764    -0.76300
O1923       O  0.38562738  0.13954210  0.51809487    -0.85800
O1924       O  0.36142779  0.10978383  0.50564984    -0.85500
O1925       O  0.36039840  0.14996761  0.57280969    -0.72200
O1926       O  0.33813039  0.12290511  0.55861194    -0.84400
Zr1927     Zr  0.38785664  0.10074501  0.60923946     2.26400
Zr1928     Zr  0.39296834  0.14849403  0.57477061     2.06300
Zr1929     Zr  0.34731198  0.09221131  0.54910359     2.10000
Zr1930     Zr  0.39360857  0.10841804  0.50928846     1.78800
O1931       O  0.32206354  0.07896649  0.58057192    -0.93200
O1932       O  0.42282873  0.12175986  0.49394813    -0.41000
O1933       O  0.37975304  0.09081226  0.55305859    -0.77600
O1934       O  0.40222367  0.11777633  0.56440809    -0.96300
O1935       O  0.37873923  0.13132958  0.61887586    -0.89600
O1936       O  0.35532776  0.10090956  0.60561746    -0.92500
C1937       C  0.37612883  0.13007004  0.44008868     1.01300
C1938       C  0.31473460  0.11394733  0.50037488     1.14200
C1939       C  0.37049053  0.18388751  0.53747091     1.05000
O1940       O  0.41928454  0.15992123  0.54390919    -0.94600
O1941       O  0.41953771  0.14169264  0.60849898    -0.90400
O1942       O  0.41867707  0.11181072  0.62288016    -0.83500
C1943       C  0.42691268  0.12727048  0.62054525     1.11600
O1944       O  0.31844614  0.14864037  0.60604802    -0.96600
Zr1945     Zr  0.34638005  0.13149052  0.61487003     1.88900
O1946       O  0.38088330  0.10652073  0.66936158    -0.73200
O1947       O  0.39533079  0.17118608  0.61953943    -0.52500
O1948       O  0.34476499  0.15984572  0.64670197    -0.97200
O1949       O  0.32120181  0.11433350  0.63960084    -0.54400
O1950       O  0.35675715  0.12554971  0.67130044    -0.73700
C1951       C  0.36937728  0.11644560  0.68564775     0.98600
O1952       O  0.40717253  0.07605730  0.62907501    -0.62600
O1953       O  0.34419295  0.07025127  0.50328741    -0.57400
O1954       O  0.38050750  0.06831053  0.60787702    -0.94100
O1955       O  0.35810598  0.06325686  0.56944874    -0.92500
O1956       O  0.38974624  0.08245982  0.47164357    -0.92800
O1957       O  0.41800241  0.08622257  0.51459405    -0.91600
C1958       C  0.36983577  0.05778219  0.59105618     1.17400
H1959       H  0.35720413  0.10568054  0.48382297     0.33400
H1960       H  0.41527304  0.11660298  0.56390614     0.44200
H1961       H  0.35015130  0.09267547  0.62204650     0.37800
H1962       H  0.35608117  0.16193232  0.57869982     0.34200
H1963       H  0.42632804  0.11553732  0.47270943     0.26000
H1964       H  0.40255980  0.18126174  0.60968997     0.32000
H1965       H  0.35713169  0.16159992  0.65601028     0.37900
H1966       H  0.38800386  0.07189106  0.48681050     0.32300
H1967       H  0.35631006  0.06453413  0.50114121     0.31200
H1968       H  0.32091786  0.06640295  0.57175461     0.32900
H1969       H  0.32676382  0.10537720  0.65510537     0.31900
H1970       H  0.41544667  0.07985586  0.53614058     0.35900
H1971       H  0.41895575  0.07745574  0.61719135     0.28600
H1972       H  0.33896127  0.16815896  0.47123840     0.32800
H1973       H  0.31159606  0.14782091  0.62756250     0.35700
H1974       H  0.33629404  0.06052488  0.51255125     0.28300
H1975       H  0.40972907  0.07897630  0.65299714     0.41200
H1976       H  0.42446524  0.16949715  0.55867266     0.31200
H1977       H  0.41994358  0.13435697  0.48697382     0.38800
H1978       H  0.31623106  0.10700175  0.62076654     0.30700
H1979       H  0.38290101  0.17618659  0.62187922     0.30700
H1980       H  0.32602452  0.16797562  0.50302196     0.31000
Zr1981     Zr  0.15213240  0.14231769  0.37183674     2.17500
O1982       O  0.17480511  0.16132628  0.39988706    -0.51300
O1983       O  0.14201641  0.13771553  0.43051927    -0.74600
O1984       O  0.14496627  0.17510486  0.37003443    -0.81300
O1985       O  0.18577200  0.10213395  0.36657208    -0.83100
O1986       O  0.11919999  0.17934492  0.33928407    -0.78700
O1987       O  0.18254870  0.13099124  0.38583622    -0.90300
O1988       O  0.11885898  0.11738405  0.43040678    -0.76300
O1989       O  0.11981448  0.14028119  0.36809961    -0.85800
O1990       O  0.14461758  0.11088306  0.37775564    -0.85500
O1991       O  0.14465349  0.15350636  0.31613074    -0.72200
O1992       O  0.16755989  0.12661173  0.32672600    -0.84400
Zr1993     Zr  0.11907649  0.10465554  0.27268000     2.26400
Zr1994     Zr  0.11210668  0.15079278  0.31258855     2.06300
Zr1995     Zr  0.15923490  0.09536423  0.33211769     2.10000
Zr1996     Zr  0.11243510  0.10886114  0.37313769     1.78800
O1997       O  0.18571189  0.08539232  0.30015445    -0.93200
O1998       O  0.08445671  0.12326259  0.39261994    -0.41000
O1999       O  0.12686151  0.09302848  0.32762294    -0.77600
O2000       O  0.10366677  0.11950143  0.31885292    -0.96300
O2001       O  0.12716877  0.13582360  0.26688109    -0.89600
O2002       O  0.15148330  0.10605080  0.27678918    -0.92500
C2003       C  0.13015551  0.12772930  0.44574726     1.01300
C2004       C  0.19165592  0.11611532  0.38272282     1.14200
C2005       C  0.13255618  0.18524289  0.35688202     1.05000
O2006       O  0.08561002  0.16115913  0.34409342    -0.94600
O2007       O  0.08559963  0.14470182  0.27778680    -0.90400
O2008       O  0.08865494  0.11592113  0.25771765    -0.83500
C2009       C  0.07959788  0.13077536  0.26165010     1.11600
O2010       O  0.18671501  0.15512469  0.28382544    -0.96600
Zr2011     Zr  0.15945456  0.13731317  0.27175915     1.88900
O2012       O  0.12771744  0.11158158  0.21420162    -0.73200
O2013       O  0.10989873  0.17405329  0.26897191    -0.52500
O2014       O  0.16070982  0.16696521  0.24441027    -0.97200
O2015       O  0.18555944  0.12218478  0.24606333    -0.54400
O2016       O  0.14946206  0.13359282  0.21422212    -0.73700
C2017       C  0.13813612  0.12312548  0.19919007     0.98600
O2018       O  0.09996719  0.08108593  0.24752429    -0.62600
O2019       O  0.16171583  0.07076209  0.37314988    -0.57400
O2020       O  0.12686151  0.07236231  0.27085851    -0.94100
O2021       O  0.15048113  0.06690046  0.30632846    -0.92500
O2022       O  0.11541049  0.08012762  0.40324787    -0.92800
O2023       O  0.08655925  0.08833633  0.36747078    -0.91600
C2024       C  0.13839258  0.06170520  0.28507880     1.17400
H2025       H  0.14890511  0.10617366  0.39906153     0.33400
H2026       H  0.09065617  0.11783833  0.31835609     0.44200
H2027       H  0.15702421  0.09864860  0.25943998     0.37800
H2028       H  0.14857705  0.16588621  0.31259416     0.34200
H2029       H  0.08035471  0.11575443  0.41196551     0.26000
H2030       H  0.09954217  0.18172827  0.27615202     0.32000
H2031       H  0.14839161  0.17208559  0.24740274     0.37900
H2032       H  0.12670213  0.08135853  0.41664752     0.32300
H2033       H  0.17392175  0.06550970  0.36916307     0.31200
H2034       H  0.18710454  0.07236831  0.30593197     0.32900
H2035       H  0.18051244  0.11335576  0.22964669     0.31900
H2036       H  0.08931953  0.08101109  0.34708369     0.35900
H2037       H  0.08901923  0.08034421  0.26208262     0.28600
H2038       H  0.16804525  0.16897316  0.41620377     0.32800
H2039       H  0.19350045  0.15588822  0.26222925     0.35700
H2040       H  0.16268397  0.07677036  0.39547230     0.28300
H2041       H  0.09562333  0.08613815  0.22580715     0.41200
H2042       H  0.07951848  0.16991055  0.32886557     0.31200
H2043       H  0.08837644  0.13488462  0.40301861     0.38800
H2044       H  0.19079422  0.11466330  0.26432033     0.30700
H2045       H  0.12068870  0.18191946  0.27227800     0.30700
H2046       H  0.17927968  0.16987259  0.38239229     0.31000
Zr2047     Zr  0.15260375  0.13952824  0.86773234     2.17500
O2048       O  0.17740557  0.15782250  0.89078859    -0.51300
O2049       O  0.14266982  0.13830534  0.92695580    -0.74600
O2050       O  0.14785458  0.17266387  0.86154159    -0.81300
O2051       O  0.18330129  0.09673246  0.86753535    -0.83100
O2052       O  0.12170599  0.17723674  0.83209614    -0.78700
O2053       O  0.18127441  0.12604298  0.88526923    -0.90300
O2054       O  0.11983192  0.11771748  0.93200123    -0.76300
O2055       O  0.12023588  0.13929315  0.86591795    -0.85800
O2056       O  0.14362487  0.10879984  0.87775879    -0.85500
O2057       O  0.14539686  0.14886144  0.81107246    -0.72200
O2058       O  0.16643594  0.12119454  0.82423757    -0.84400
Zr2059     Zr  0.11638449  0.10011875  0.77568263     2.26400
Zr2060     Zr  0.11279060  0.14812426  0.80924242     2.06300
Zr2061     Zr  0.15653081  0.09061249  0.83371260     2.10000
Zr2062     Zr  0.11138194  0.10851248  0.87559541     1.78800
O2063       O  0.18188052  0.07904054  0.80046987    -0.93200
O2064       O  0.08488666  0.12544657  0.89495174    -0.41000
O2065       O  0.12408227  0.09005808  0.83164558    -0.77600
O2066       O  0.10258890  0.11771760  0.82028976    -0.96300
O2067       O  0.12611301  0.13038967  0.76498125    -0.89600
O2068       O  0.14877585  0.09979421  0.77757484    -0.92500
C2069       C  0.13131819  0.12891791  0.94464991     1.01300
C2070       C  0.18944804  0.11061777  0.88355604     1.14200
C2071       C  0.13583284  0.18299674  0.84766841     1.05000
O2072       O  0.08660487  0.16134412  0.83782772    -0.94600
O2073       O  0.08610742  0.14216173  0.77523466    -0.90400
O2074       O  0.08693825  0.11251115  0.75948782    -0.83500
C2075       C  0.07908069  0.12807789  0.76120891     1.11600
O2076       O  0.18655346  0.14788224  0.77269441    -0.96600
Zr2077     Zr  0.15845033  0.13029324  0.76816245     1.88900
O2078       O  0.12389454  0.10469297  0.71619479    -0.73200
O2079       O  0.11235049  0.17016996  0.76329995    -0.52500
O2080       O  0.15553104  0.15910384  0.73808284    -0.97200
O2081       O  0.18536286  0.11469957  0.74665443    -0.54400
O2082       O  0.14943659  0.12191779  0.71172432    -0.73700
C2083       C  0.13614396  0.11302639  0.69891987     0.98600
O2084       O  0.09533225  0.07701588  0.75468733    -0.62600
O2085       O  0.15906843  0.06734766  0.87731260    -0.57400
O2086       O  0.12233359  0.06750793  0.77586108    -0.94100
O2087       O  0.14494870  0.06164083  0.81339526    -0.92500
O2088       O  0.11231705  0.08092495  0.90956968    -0.92800
O2089       O  0.08457021  0.08912404  0.87146837    -0.91600
C2090       C  0.13269782  0.05659559  0.79226023     1.17400
H2091       H  0.14800959  0.10465468  0.89940292     0.33400
H2092       H  0.08949398  0.11690736  0.82023311     0.44200
H2093       H  0.15357525  0.09148850  0.76088248     0.37800
H2094       H  0.14998490  0.16082300  0.80578217     0.34200
H2095       H  0.07941873  0.11777333  0.91283351     0.26000
H2096       H  0.10467275  0.18025636  0.77173597     0.32000
H2097       H  0.15970530  0.15657294  0.71475018     0.37900
H2098       H  0.12537483  0.07779856  0.91101153     0.32300
H2099       H  0.17129113  0.06199641  0.87405299     0.31200
H2100       H  0.18282604  0.06606666  0.80693364     0.32900
H2101       H  0.18863698  0.12126467  0.72566828     0.31900
H2102       H  0.08584433  0.08293754  0.84934338     0.35900
H2103       H  0.08423128  0.07810384  0.76875153     0.28600
H2104       H  0.17176435  0.16605244  0.90761623     0.32800
H2105       H  0.18937381  0.15228564  0.74962438     0.35700
H2106       H  0.15990635  0.07402424  0.89899486     0.28300
H2107       H  0.09167430  0.08109242  0.73184139     0.41200
H2108       H  0.07751110  0.15140313  0.83890101     0.31200
H2109       H  0.08988156  0.13610651  0.90716009     0.38800
H2110       H  0.18104712  0.10267979  0.73870021     0.30700
H2111       H  0.12479751  0.17531557  0.76268025     0.30700
H2112       H  0.18152549  0.16583054  0.87215964     0.31000
C2113       C  0.12000258  0.10978985  0.53360048    -0.02000
C2114       C  0.12895089  0.12234406  0.55464145     0.06600
C2115       C  0.13802661  0.13722495  0.54006205    -0.08000
C2116       C  0.13843136  0.13968145  0.50488284     0.04000
C2117       C  0.12962233  0.12695608  0.48349652    -0.15200
C2118       C  0.12035261  0.11218744  0.49861313    -0.08600
C2119       C  0.13027425  0.11936911  0.59162330     0.04900
C2120       C  0.14742830  0.11580181  0.60538144    -0.09700
C2121       C  0.14958325  0.11294148  0.64005266    -0.00100
C2122       C  0.13428539  0.11345430  0.66170786    -0.00200
C2123       C  0.11699547  0.11653593  0.64774528    -0.13200
C2124       C  0.11491959  0.11975068  0.61305714     0.00300
C2125       C  0.16764395  0.10928267  0.65249468     0.39600
C2126       C  0.09712091  0.12434311  0.60031635     0.36200
C2127       C  0.11097854  0.09390844  0.54720337     0.35900
C2128       C  0.14793320  0.15539638  0.49192681     0.36700
N2129       N  0.18220922  0.10635362  0.66202571    -0.44100
N2130       N  0.08288472  0.12809892  0.59007793    -0.44600
N2131       N  0.15561153  0.16809674  0.48208866    -0.41900
N2132       N  0.10368133  0.08124549  0.55815644    -0.43400
H2133       H  0.11365977  0.10203673  0.48306684     0.12800
H2134       H  0.14499606  0.14686963  0.55631123     0.09300
H2135       H  0.15921726  0.11529566  0.58887804     0.10400
H2136       H  0.10520047  0.11733479  0.66418781     0.16200
C2137       C  0.13809205  0.11003605  0.10672757    -0.02000
C2138       C  0.13723635  0.12716655  0.09075699     0.06600
C2139       C  0.13609402  0.14293826  0.11054963    -0.08000
C2140       C  0.13593561  0.14184769  0.14590369     0.04000
C2141       C  0.13711131  0.12469608  0.16197607    -0.15200
C2142       C  0.13799789  0.10891196  0.14209437    -0.08600
C2143       C  0.13588845  0.12875242  0.05348181     0.04900
C2144       C  0.11912263  0.12511123  0.03832111    -0.09700
C2145       C  0.11705974  0.12585588  0.00321514    -0.00100
C2146       C  0.13213697  0.13025020  0.98226450    -0.00200
C2147       C  0.14886020  0.13444415  0.99781434    -0.13200
C2148       C  0.15083151  0.13367145  0.03308758     0.00300
C2149       C  0.09913119  0.12232716  0.98993733     0.39600
C2150       C  0.16844574  0.13726490  0.04771360     0.36200
C2151       C  0.13916086  0.09346316  0.08724069     0.35900
C2152       C  0.13355400  0.15842104  0.16507231     0.36700
N2153       N  0.08457995  0.11948029  0.98017249    -0.44100
N2154       N  0.18259738  0.14007346  0.05937919    -0.44600
N2155       N  0.13146762  0.17168532  0.18037644    -0.41900
N2156       N  0.14001652  0.08019007  0.07156853    -0.43400
H2157       H  0.13891208  0.09571309  0.15421090     0.12800
H2158       H  0.13491766  0.15608309  0.09830759     0.09300
H2159       H  0.10756602  0.12156990  0.05411809     0.10400
H2160       H  0.16062910  0.13767468  0.98236812     0.16200
C2161       C  0.27671299  0.12721251  0.44011439    -0.02000
C2162       C  0.26307910  0.11427131  0.44728826     0.06600
C2163       C  0.26663953  0.10064378  0.47115105    -0.08000
C2164       C  0.28322997  0.10008674  0.48869682     0.04000
C2165       C  0.29684974  0.11335714  0.48224443    -0.15200
C2166       C  0.29329563  0.12669909  0.45750598    -0.08600
C2167       C  0.24488057  0.11490722  0.43072914     0.04900
C2168       C  0.23991317  0.10106895  0.40820009    -0.09700
C2169       C  0.22283438  0.10102230  0.39234629    -0.00100
C2170       C  0.21013703  0.11520128  0.39890506    -0.00200
C2171       C  0.21527389  0.12897969  0.42188074    -0.13200
C2172       C  0.23232389  0.12886611  0.43778526     0.00300
C2173       C  0.21906458  0.08617217  0.36949363     0.39600
C2174       C  0.23648117  0.14293827  0.46208475     0.36200
C2175       C  0.27411269  0.14098479  0.41457578     0.35900
C2176       C  0.28540869  0.08614059  0.51400077     0.36700
N2177       N  0.21632659  0.07408557  0.35142521    -0.44100
N2178       N  0.23990777  0.15414620  0.48164062    -0.44600
N2179       N  0.28695347  0.07492233  0.53428793    -0.41900
N2180       N  0.27206960  0.15201414  0.39408411    -0.43400
H2181       H  0.30355447  0.13681039  0.45145429     0.12800
H2182       H  0.25619966  0.09061866  0.47666316     0.09300
H2183       H  0.24950317  0.09023163  0.40290051     0.10400
H2184       H  0.20586978  0.13985008  0.42791566     0.16200
C2185       C  0.36126774  0.13625305  0.77308908    -0.02000
C2186       C  0.37059843  0.12421986  0.79456412     0.06600
C2187       C  0.38019151  0.10960003  0.78008278    -0.08000
C2188       C  0.38043363  0.10677399  0.74486434     0.04000
C2189       C  0.37054388  0.11852285  0.72332376    -0.15200
C2190       C  0.36123419  0.13329841  0.73820184    -0.08600
C2191       C  0.36992960  0.12640117  0.83209642     0.04900
C2192       C  0.35295700  0.12616725  0.84857220    -0.09700
C2193       C  0.35167227  0.12747390  0.88388674    -0.00100
C2194       C  0.36761549  0.12899792  0.90349368    -0.00200
C2195       C  0.38453581  0.12963023  0.88695888    -0.13200
C2196       C  0.38582114  0.12843130  0.85170960     0.00300
C2197       C  0.33397348  0.12573904  0.89932853     0.39600
C2198       C  0.40363361  0.12950210  0.83646204     0.36200
C2199       C  0.35194798  0.15207973  0.78606834     0.35900
C2200       C  0.39087163  0.09169908  0.73195709     0.36700
N2201       N  0.31972419  0.12417490  0.91141321    -0.44100
N2202       N  0.41802862  0.13041137  0.82471283    -0.44600
N2203       N  0.39946155  0.07965581  0.72200460    -0.41900
N2204       N  0.34447479  0.16479755  0.79626851    -0.43400
H2205       H  0.35393197  0.14289557  0.72249915     0.12800
H2206       H  0.38740065  0.10024040  0.79642649     0.09300
H2207       H  0.34066502  0.12441611  0.83380123     0.10400
H2208       H  0.39688904  0.13076644  0.90177719     0.16200
C2209       C  0.37523202  0.10682188  0.27965002    -0.02000
C2210       C  0.37672508  0.12421127  0.29460823     0.06600
C2211       C  0.37779789  0.13961437  0.27392185    -0.08000
C2212       C  0.37651977  0.13801086  0.23876917     0.04000
C2213       C  0.37428673  0.12068422  0.22374793    -0.15200
C2214       C  0.37411975  0.10516824  0.24437491    -0.08600
C2215       C  0.37632200  0.12677496  0.33178772     0.04900
C2216       C  0.39255398  0.13042574  0.34900880    -0.09700
C2217       C  0.39262719  0.13270366  0.38418685    -0.00100
C2218       C  0.37622212  0.13124485  0.40271565    -0.00200
C2219       C  0.35986754  0.12842194  0.38516536    -0.13200
C2220       C  0.35981568  0.12624425  0.34995262     0.00300
C2221       C  0.40961954  0.13702442  0.40059563     0.39600
C2222       C  0.34270052  0.12355493  0.33281758     0.36200
C2223       C  0.37466975  0.09055267  0.30002455     0.35900
C2224       C  0.37772254  0.15434840  0.21861089     0.36700
N2225       N  0.42322004  0.14067926  0.41363511    -0.44100
N2226       N  0.32903432  0.12150932  0.31885316    -0.44600
N2227       N  0.37872855  0.16743598  0.20247064    -0.41900
N2228       N  0.37427129  0.07747569  0.31627961    -0.43400
H2229       H  0.37251595  0.09182302  0.23301473     0.12800
H2230       H  0.37919724  0.15296553  0.28535788     0.09300
H2231       H  0.40519105  0.13138873  0.33493492     0.10400
H2232       H  0.34719528  0.12725611  0.39908190     0.16200
C2233       C  0.27032566  0.12151088  0.94901903    -0.02000
C2234       C  0.25797112  0.10728806  0.95530870     0.06600
C2235       C  0.26283454  0.09332898  0.97759723    -0.08000
C2236       C  0.27968679  0.09359882  0.99428656     0.04000
C2237       C  0.29193896  0.10832809  0.98910143    -0.15200
C2238       C  0.28687159  0.12211791  0.96623219    -0.08600
C2239       C  0.23986345  0.10707973  0.93890229     0.04900
C2240       C  0.23664163  0.09502615  0.91212963    -0.09700
C2241       C  0.22045145  0.09586880  0.89351025    -0.00100
C2242       C  0.20694530  0.10883866  0.90213390    -0.00200
C2243       C  0.21016544  0.12056772  0.92963367    -0.13200
C2244       C  0.22640818  0.11982005  0.94784672     0.00300
C2245       C  0.21870901  0.08397915  0.86462557     0.39600
C2246       C  0.22906257  0.13240503  0.97546495     0.36200
C2247       C  0.26647533  0.13539389  0.92422617     0.35900
C2248       C  0.28369983  0.07867366  0.01673087     0.36700
N2249       N  0.21754638  0.07446399  0.84140476    -0.44100
N2250       N  0.23120346  0.14253664  0.99751513    -0.44600
N2251       N  0.28677417  0.06659001  0.03454793    -0.41900
N2252       N  0.26338562  0.14637382  0.90410963    -0.43400
H2253       H  0.29592969  0.13346264  0.96132455     0.12800
H2254       H  0.25335939  0.08225898  0.98213761     0.09300
H2255       H  0.24712127  0.08539095  0.90496562     0.10400
H2256       H  0.19996300  0.13044427  0.93702472     0.16200
C2257       C  0.35921964  0.96841547  0.60660800    -0.02000
C2258       C  0.37464858  0.97979165  0.60736170     0.06600
C2259       C  0.39152355  0.97254141  0.61660304    -0.08000
C2260       C  0.39316168  0.95432648  0.62620920     0.04000
C2261       C  0.37769083  0.94286155  0.62577621    -0.15200
C2262       C  0.36090253  0.95007110  0.61528236    -0.08600
C2263       C  0.37324781  0.99968061  0.60248522     0.04900
C2264       C  0.37684445  0.01101531  0.63019857    -0.09700
C2265       C  0.37588008  0.02993403  0.62724060    -0.00100
C2266       C  0.37125716  0.03784668  0.59589195    -0.00200
C2267       C  0.36760534  0.02638611  0.56815640    -0.13200
C2268       C  0.36859541  0.00745787  0.57117925     0.00300
C2269       C  0.37897544  0.04071766  0.65716393     0.39600
C2270       C  0.36504371  0.99636899  0.54175116     0.36200
C2271       C  0.34134775  0.97550312  0.59932874     0.35900
C2272       C  0.41045575  0.94846003  0.63945010     0.36700
N2273       N  0.38142755  0.04921390  0.68135913    -0.44100
N2274       N  0.36208123  0.98755885  0.51812420    -0.44600
N2275       N  0.42433707  0.94408049  0.65045826    -0.41900
N2276       N  0.32702479  0.98120915  0.59362400    -0.43400
H2277       H  0.34886626  0.94150724  0.61504610     0.12800
H2278       H  0.40331384  0.98142186  0.61784137     0.09300
H2279       H  0.38024550  0.00499692  0.65440339     0.10400
H2280       H  0.36414829  0.03223530  0.54384786     0.16200
C2281       C  0.36335946  0.97313215  0.15076170    -0.02000
C2282       C  0.37421650  0.98134115  0.12573862     0.06600
C2283       C  0.38634404  0.97064173  0.10693872    -0.08000
C2284       C  0.38780086  0.95188667  0.11276623     0.04000
C2285       C  0.37701096  0.94360802  0.13816975    -0.15200
C2286       C  0.36490292  0.95452940  0.15685471    -0.08600
C2287       C  0.37296224  0.00107003  0.11883582     0.04900
C2288       C  0.37840476  0.01341225  0.14392162    -0.09700
C2289       C  0.37680538  0.03218791  0.13894743    -0.00100
C2290       C  0.36947543  0.03884808  0.10831913    -0.00200
C2291       C  0.36416602  0.02637708  0.08320634    -0.13200
C2292       C  0.36597072  0.00765668  0.08810914     0.00300
C2293       C  0.38228521  0.04415290  0.16609238     0.39600
C2294       C  0.36033908  0.99549196  0.06140291     0.36200
C2295       C  0.35014335  0.98337437  0.16995261     0.35900
C2296       C  0.39988330  0.94162723  0.09125825     0.36700
N2297       N  0.38672322  0.05370897  0.18785341    -0.44100
N2298       N  0.35590456  0.98580043  0.03985682    -0.44600
N2299       N  0.40957642  0.93378335  0.07339212    -0.41900
N2300       N  0.33946931  0.99142864  0.18539004    -0.43400
H2301       H  0.35653665  0.94854616  0.17654881     0.12800
H2302       H  0.39461113  0.97698404  0.08748310     0.09300
H2303       H  0.38382047  0.00831091  0.16756443     0.10400
H2304       H  0.35876927  0.03126003  0.05939333     0.16200
C2305       C  0.38516116  0.85113627  0.98049407    -0.02000
C2306       C  0.37956075  0.86736177  0.96476122     0.06600
C2307       C  0.37699962  0.88308755  0.98431907    -0.08000
C2308       C  0.37964958  0.88271434  0.01937369     0.04000
C2309       C  0.38521215  0.86643103  0.03514342    -0.15200
C2310       C  0.38784268  0.85075674  0.01547100    -0.08600
C2311       C  0.37739545  0.86841927  0.92762745     0.04900
C2312       C  0.36151756  0.86178091  0.91225247    -0.09700
C2313       C  0.35946282  0.86218308  0.87690871    -0.00100
C2314       C  0.37361676  0.86929377  0.85638990    -0.00200
C2315       C  0.38945258  0.87591127  0.87242216    -0.13200
C2316       C  0.39137172  0.87559659  0.90745670     0.00300
C2317       C  0.34263065  0.85550209  0.86285584     0.39600
C2318       C  0.40797600  0.88249918  0.92220015     0.36200
C2319       C  0.38839051  0.83478427  0.96117589     0.35900
C2320       C  0.37528307  0.89874583  0.03890994     0.36700
N2321       N  0.32904545  0.85007564  0.85204788    -0.44100
N2322       N  0.42124231  0.88806856  0.93406287    -0.44600
N2323       N  0.37157834  0.91145047  0.05477587    -0.41900
N2324       N  0.39101644  0.82167620  0.94570899    -0.43400
H2325       H  0.39186600  0.83814902  0.02754792     0.12800
H2326       H  0.37270301  0.89558364  0.97218645     0.09300
H2327       H  0.35072714  0.85626688  0.92794438     0.10400
H2328       H  0.40067275  0.88121355  0.85757133     0.16200
C2329       C  0.39791687  0.86884359  0.40622184    -0.02000
C2330       C  0.38279648  0.86486431  0.42669745     0.06600
C2331       C  0.36601479  0.86071901  0.41153292    -0.08000
C2332       C  0.36413115  0.86071554  0.37622952     0.04000
C2333       C  0.37931968  0.86482943  0.35565350    -0.15200
C2334       C  0.39611784  0.86868007  0.37119122    -0.08600
C2335       C  0.38448350  0.86465069  0.46397704     0.04900
C2336       C  0.38832673  0.88091433  0.48117474    -0.09700
C2337       C  0.39044174  0.88114798  0.51636483    -0.00100
C2338       C  0.38841089  0.86481929  0.53497108    -0.00200
C2339       C  0.38492165  0.84851957  0.51738785    -0.13200
C2340       C  0.38312334  0.84830509  0.48224600     0.00300
C2341       C  0.39394209  0.89843956  0.53250223     0.39600
C2342       C  0.38048282  0.83109334  0.46528049     0.36200
C2343       C  0.41550829  0.87293023  0.42058550     0.35900
C2344       C  0.34640659  0.85718831  0.36198386     0.36700
N2345       N  0.39679637  0.91239400  0.54503214    -0.44100
N2346       N  0.37851785  0.81734317  0.45146866    -0.44600
N2347       N  0.33222411  0.85442080  0.35040392    -0.41900
N2348       N  0.42957162  0.87628355  0.43212331    -0.43400
H2349       H  0.40802568  0.87161537  0.35590232     0.12800
H2350       H  0.35434235  0.85768832  0.42736815     0.09300
H2351       H  0.38958957  0.89348259  0.46699187     0.10400
H2352       H  0.38356998  0.83583929  0.53118884     0.16200
C2353       C  0.37274475  0.73006164  0.82411077    -0.02000
C2354       C  0.38878862  0.74047334  0.82199706     0.06600
C2355       C  0.40466795  0.73391375  0.83710646    -0.08000
C2356       C  0.40469096  0.71743442  0.85501627     0.04000
C2357       C  0.38835016  0.70715561  0.85848108    -0.15200
C2358       C  0.37256425  0.71376787  0.84245229    -0.08600
C2359       C  0.38889663  0.75874491  0.80588387     0.04900
C2360       C  0.37894545  0.77276870  0.82119621    -0.09700
C2361       C  0.37827484  0.79017698  0.80690183    -0.00100
C2362       C  0.38764129  0.79381969  0.77637174    -0.00200
C2363       C  0.39796863  0.77980444  0.76148857    -0.13200
C2364       C  0.39865883  0.76239589  0.77595443     0.00300
C2365       C  0.36844226  0.80412329  0.82494766     0.39600
C2366       C  0.40905595  0.74837681  0.75922145     0.36200
C2367       C  0.35646045  0.73556411  0.80656169     0.35900
C2368       C  0.42179154  0.71172850  0.86935116     0.36700
N2369       N  0.36060553  0.81519495  0.83978268    -0.44100
N2370       N  0.41740150  0.73713247  0.74585514    -0.44600
N2371       N  0.43563449  0.70737641  0.88058062    -0.41900
N2372       N  0.34353328  0.73993530  0.79207953    -0.43400
H2373       H  0.35994455  0.70615855  0.84391123     0.12800
H2374       H  0.41707357  0.74187825  0.83529408     0.09300
H2375       H  0.37172050  0.77008455  0.84460596     0.10400
H2376       H  0.40524121  0.78233165  0.73807853     0.16200
C2377       C  0.37064105  0.65259570  0.65479784    -0.02000
C2378       C  0.37135710  0.63600901  0.67257692     0.06600
C2379       C  0.37408359  0.61976912  0.65460226    -0.08000
C2380       C  0.37643900  0.61986049  0.61947341     0.04000
C2381       C  0.37589308  0.63649405  0.60155050    -0.15200
C2382       C  0.37268151  0.65270479  0.61955086    -0.08600
C2383       C  0.37069065  0.63537796  0.71011305     0.04900
C2384       C  0.35460563  0.63987713  0.72744294    -0.09700
C2385       C  0.35370865  0.63908445  0.76296556    -0.00100
C2386       C  0.36922669  0.63384278  0.78167968    -0.00200
C2387       C  0.38527017  0.62950897  0.76391520    -0.13200
C2388       C  0.38608732  0.63014666  0.72872595     0.00300
C2389       C  0.33654680  0.64292574  0.77914812     0.39600
C2390       C  0.40304630  0.62559829  0.71230211     0.36200
C2391       C  0.36875391  0.66970347  0.67242277     0.35900
C2392       C  0.37880550  0.60262587  0.60243461     0.36700
N2393       N  0.32265634  0.64592175  0.79174000    -0.44100
N2394       N  0.41661621  0.62186995  0.69918879    -0.44600
N2395       N  0.38070641  0.58884064  0.58871689    -0.41900
N2396       N  0.36738251  0.68336711  0.68675908    -0.43400
H2397       H  0.37217910  0.66555571  0.60612858     0.12800
H2398       H  0.37459207  0.60697516  0.66821709     0.09300
H2399       H  0.34266633  0.64375513  0.71312809     0.10400
H2400       H  0.39745437  0.62572152  0.77759558     0.16200
C2401       C  0.39175611  0.61543091  0.15230243    -0.02000
C2402       C  0.38877911  0.63094836  0.17249988     0.06600
C2403       C  0.38848249  0.64813130  0.15740452    -0.08000
C2404       C  0.39031526  0.65003940  0.12239501     0.04000
C2405       C  0.39237520  0.63442431  0.10162480    -0.15200
C2406       C  0.39355263  0.61725234  0.11714817    -0.08600
C2407       C  0.38613404  0.62968073  0.20955755     0.04900
C2408       C  0.40146319  0.62895779  0.23031271    -0.09700
C2409       C  0.39968005  0.62862264  0.26550879    -0.00100
C2410       C  0.38216572  0.62829192  0.28061761    -0.00200
C2411       C  0.36680562  0.62940308  0.25965422    -0.13200
C2412       C  0.36869087  0.63031930  0.22438604     0.00300
C2413       C  0.41610375  0.63009252  0.28528546     0.39600
C2414       C  0.35260628  0.63226533  0.20388386     0.36200
C2415       C  0.39240137  0.59748999  0.16704120     0.35900
C2416       C  0.39018038  0.66826707  0.10880635     0.36700
N2417       N  0.42937259  0.63159347  0.30071816    -0.44100
N2418       N  0.33973029  0.63401133  0.18744899    -0.44600
N2419       N  0.39007429  0.68298773  0.09846267    -0.41900
N2420       N  0.39290385  0.58310772  0.17887744    -0.43400
H2421       H  0.39507312  0.60514091  0.10172600     0.12800
H2422       H  0.38663690  0.66010565  0.17309806     0.09300
H2423       H  0.41489805  0.62920393  0.21893091     0.10400
H2424       H  0.35332505  0.62958748  0.27080269     0.16200
C2425       C  0.39799022  0.73469466  0.35174441    -0.02000
C2426       C  0.39037123  0.73710579  0.31930487     0.06600
C2427       C  0.38222082  0.72205427  0.30336474    -0.08000
C2428       C  0.38106293  0.70505513  0.31950356     0.04000
C2429       C  0.38830174  0.70277378  0.35237642    -0.15200
C2430       C  0.39698314  0.71768897  0.36777895    -0.08600
C2431       C  0.39030215  0.75525660  0.30203366     0.04900
C2432       C  0.40680523  0.76423398  0.29514435    -0.09700
C2433       C  0.40714557  0.78146583  0.27965059    -0.00100
C2434       C  0.39064789  0.79005994  0.27026993    -0.00200
C2435       C  0.37420763  0.78090575  0.27701509    -0.13200
C2436       C  0.37389966  0.76383236  0.29273240     0.00300
C2437       C  0.42460252  0.79015331  0.27497563     0.39600
C2438       C  0.35643895  0.75574246  0.30013163     0.36200
C2439       C  0.40627166  0.74963058  0.36980109     0.35900
C2440       C  0.37294775  0.69011430  0.30114591     0.36700
N2441       N  0.43865266  0.79702503  0.27141036    -0.44100
N2442       N  0.34238077  0.74937751  0.30601596    -0.44600
N2443       N  0.36651671  0.67824630  0.28603830    -0.41900
N2444       N  0.41294228  0.76155792  0.38436465    -0.43400
H2445       H  0.40256832  0.71621780  0.39297997     0.12800
H2446       H  0.37665787  0.72362858  0.27816952     0.09300
H2447       H  0.41950332  0.75778936  0.30214699     0.10400
H2448       H  0.36139072  0.78713311  0.27009303     0.16200
C2449       C  0.63636532  0.35614305  0.64717017    -0.02000
C2450       C  0.62486709  0.36650544  0.66811537     0.06600
C2451       C  0.61088699  0.37670485  0.65332879    -0.08000
C2452       C  0.60804962  0.37655430  0.61824719     0.04000
C2453       C  0.61932804  0.36585075  0.59702001    -0.15200
C2454       C  0.63342832  0.35573393  0.61225180    -0.08600
C2455       C  0.62735963  0.36719096  0.70543267     0.04900
C2456       C  0.63144778  0.38393182  0.72075290    -0.09700
C2457       C  0.63338355  0.38532477  0.75587902    -0.00100
C2458       C  0.63117582  0.36976981  0.77640115    -0.00200
C2459       C  0.62750790  0.35291897  0.76102499    -0.13200
C2460       C  0.62542719  0.35155017  0.72587591     0.00300
C2461       C  0.63806929  0.40277161  0.77027358     0.39600
C2462       C  0.62052304  0.33415708  0.71144348     0.36200
C2463       C  0.65169346  0.34633391  0.66080324     0.35900
C2464       C  0.59343558  0.38755261  0.60530462     0.36700
N2465       N  0.64195409  0.41670038  0.78189310    -0.44100
N2466       N  0.61667825  0.32028048  0.69954934    -0.44600
N2467       N  0.58167121  0.39655365  0.59560871    -0.41900
N2468       N  0.66392725  0.33847992  0.67189115    -0.43400
H2469       H  0.64261512  0.34771976  0.59682372     0.12800
H2470       H  0.60209867  0.38482904  0.66938278     0.09300
H2471       H  0.63312007  0.39595723  0.70517028     0.10400
H2472       H  0.62545849  0.34095498  0.77662708     0.16200
C2473       C  0.62143300  0.35739788  0.15197999    -0.02000
C2474       C  0.62227955  0.37468105  0.16732208     0.06600
C2475       C  0.62059945  0.39033980  0.14732729    -0.08000
C2476       C  0.61821751  0.38897311  0.11229548     0.04000
C2477       C  0.61747209  0.37163425  0.09682079    -0.15200
C2478       C  0.61914491  0.35600350  0.11701143    -0.08600
C2479       C  0.62413865  0.37654127  0.20442243     0.04900
C2480       C  0.64021216  0.37081438  0.22024788    -0.09700
C2481       C  0.64173045  0.37080235  0.25557851    -0.00100
C2482       C  0.62697563  0.37681291  0.27563429    -0.00200
C2483       C  0.61112356  0.38304449  0.25937766    -0.13200
C2484       C  0.60958486  0.38287522  0.22425163     0.00300
C2485       C  0.65850956  0.36453755  0.27037593     0.39600
C2486       C  0.59258139  0.38842549  0.20924006     0.36200
C2487       C  0.62249724  0.34092697  0.17177742     0.35900
C2488       C  0.61752336  0.40553252  0.09268969     0.36700
N2489       N  0.67191043  0.35944555  0.28234428    -0.44100
N2490       N  0.57893482  0.39284495  0.19730162    -0.44600
N2491       N  0.61699022  0.41873398  0.07679572    -0.41900
N2492       N  0.62333437  0.32779700  0.18781916    -0.43400
H2493       H  0.61867383  0.34263214  0.10539857     0.12800
H2494       H  0.62128744  0.40364771  0.15914651     0.09300
H2495       H  0.65145426  0.36599072  0.20490825     0.10400
H2496       H  0.59952977  0.38753576  0.27414784     0.16200
C2497       C  0.51725537  0.11914247  0.63641778    -0.02000
C2498       C  0.50507448  0.13366096  0.64189844     0.06600
C2499       C  0.51214667  0.15072302  0.65112779    -0.08000
C2500       C  0.53090600  0.15364322  0.65415799     0.04000
C2501       C  0.54318602  0.13901425  0.64922599    -0.15200
C2502       C  0.53600687  0.12190152  0.64017267    -0.08600
C2503       C  0.48503816  0.13175301  0.63665193     0.04900
C2504       C  0.47509637  0.11836686  0.65420259    -0.09700
C2505       C  0.45619753  0.11646600  0.64979156    -0.00100
C2506       C  0.44674671  0.12859605  0.62833478    -0.00200
C2507       C  0.45685457  0.14198205  0.61099703    -0.13200
C2508       C  0.47568010  0.14345244  0.61450079     0.00300
C2509       C  0.44705057  0.10204918  0.66780870     0.39600
C2510       C  0.48515635  0.15664703  0.59385868     0.36200
C2511       C  0.51098048  0.10130715  0.62644396     0.35900
C2512       C  0.53693147  0.17199503  0.66104520     0.36700
N2513       N  0.44003378  0.09033652  0.68240640    -0.44100
N2514       N  0.49276256  0.16720109  0.57733862    -0.44600
N2515       N  0.54146396  0.18682613  0.66625377    -0.41900
N2516       N  0.50607694  0.08693527  0.61863124    -0.43400
H2517       H  0.54504061  0.11043518  0.63643488     0.12800
H2518       H  0.50290707  0.16197559  0.65548830     0.09300
H2519       H  0.48213135  0.10935026  0.67144188     0.10400
H2520       H  0.45014247  0.15107443  0.59345232     0.16200
C2521       C  0.60644861  0.24030064  0.77861519    -0.02000
C2522       C  0.61450637  0.24244148  0.81069958     0.06600
C2523       C  0.62247493  0.22737356  0.82644156    -0.08000
C2524       C  0.62290157  0.21041023  0.81036515     0.04000
C2525       C  0.61488800  0.20823997  0.77809955    -0.15200
C2526       C  0.60644125  0.22322931  0.76284185    -0.08600
C2527       C  0.61484319  0.26034277  0.82808971     0.04900
C2528       C  0.59837353  0.26837420  0.83775127    -0.09700
C2529       C  0.59798434  0.28545903  0.85348131    -0.00100
C2530       C  0.61447108  0.29488351  0.86008816    -0.00200
C2531       C  0.63097304  0.28657486  0.85047280    -0.13200
C2532       C  0.63127312  0.26954601  0.83466982     0.00300
C2533       C  0.58037816  0.29292528  0.86164229     0.39600
C2534       C  0.64860340  0.26203579  0.82463202     0.36200
C2535       C  0.59907051  0.25567355  0.76062078     0.35900
C2536       C  0.63151879  0.19549093  0.82777833     0.36700
N2537       N  0.56617513  0.29875356  0.86803254    -0.44100
N2538       N  0.66251364  0.25606665  0.81663744    -0.44600
N2539       N  0.63852291  0.18367191  0.84194846    -0.41900
N2540       N  0.59332174  0.26808975  0.74623822    -0.43400
H2541       H  0.60054175  0.22180078  0.73787079     0.12800
H2542       H  0.62854957  0.22894547  0.85124339     0.09300
H2543       H  0.58571562  0.26126379  0.83272608     0.10400
H2544       H  0.64382073  0.29337055  0.85519907     0.16200
C2545       C  0.47474345  0.14188779  0.10250846    -0.02000
C2546       C  0.48295477  0.13408673  0.13116925     0.06600
C2547       C  0.47204284  0.12464612  0.15454170    -0.08000
C2548       C  0.45326581  0.12261357  0.14941981     0.04000
C2549       C  0.44497483  0.13070491  0.12099648    -0.15200
C2550       C  0.45595207  0.14037946  0.09793850    -0.08600
C2551       C  0.50293947  0.13539384  0.13668386     0.04900
C2552       C  0.51117541  0.15263089  0.13881232    -0.09700
C2553       C  0.52998636  0.15442635  0.14342969    -0.00100
C2554       C  0.54094065  0.13872281  0.14626670    -0.00200
C2555       C  0.53269210  0.12150579  0.14352533    -0.13200
C2556       C  0.51390854  0.11972723  0.13900874     0.00300
C2557       C  0.53769657  0.17251164  0.14415597     0.39600
C2558       C  0.50625036  0.10165156  0.13683487     0.36200
C2559       C  0.48547584  0.15069716  0.07659556     0.35900
C2560       C  0.44292267  0.11239069  0.17395880     0.36700
N2561       N  0.54382868  0.18702728  0.14459441    -0.44100
N2562       N  0.50011611  0.08715587  0.13541109    -0.44600
N2563       N  0.43479892  0.10409044  0.19374158    -0.41900
N2564       N  0.49425503  0.15762420  0.05596487    -0.43400
H2565       H  0.44992024  0.14631975  0.07552838     0.12800
H2566       H  0.47827030  0.11869816  0.17675027     0.09300
H2567       H  0.50284328  0.16474400  0.13687102     0.10400
H2568       H  0.54087676  0.10931840  0.14587246     0.16200
C2569       C  0.61967445  0.15300471  0.97926955    -0.02000
C2570       C  0.62296974  0.13672333  0.96160169     0.06600
C2571       C  0.62295634  0.12014794  0.97915133    -0.08000
C2572       C  0.61998715  0.11964722  0.01413158     0.04000
C2573       C  0.61687765  0.13599727  0.03202597    -0.15200
C2574       C  0.61671594  0.15253902  0.01417687    -0.08600
C2575       C  0.62498440  0.13652920  0.92439645     0.04900
C2576       C  0.64147202  0.14184847  0.90933138    -0.09700
C2577       C  0.64361568  0.14143972  0.87402651    -0.00100
C2578       C  0.62899788  0.13565311  0.85341046    -0.00200
C2579       C  0.61246479  0.13067209  0.86892162    -0.13200
C2580       C  0.61039291  0.13105393  0.90391377     0.00300
C2581       C  0.66100638  0.14650499  0.85983311     0.39600
C2582       C  0.59303236  0.12601762  0.91831910     0.36200
C2583       C  0.61904319  0.17029112  0.96201397     0.35900
C2584       C  0.62136448  0.10236908  0.03119948     0.36700
N2585       N  0.67490114  0.15060028  0.84830571    -0.44100
N2586       N  0.57914273  0.12201313  0.92995546    -0.44600
N2587       N  0.62264807  0.08851332  0.04481831    -0.41900
N2588       N  0.61850112  0.18414508  0.94818165    -0.43400
H2589       H  0.61447664  0.16519910  0.02766819     0.12800
H2590       H  0.62538590  0.10759211  0.96544277     0.09300
H2591       H  0.65269986  0.14613482  0.92521002     0.10400
H2592       H  0.60092879  0.12657072  0.85363900     0.16200
C2593       C  0.61003993  0.13204242  0.40407846    -0.02000
C2594       C  0.62493592  0.13794064  0.42355019     0.06600
C2595       C  0.64116751  0.14296349  0.40718415    -0.08000
C2596       C  0.64274097  0.14204260  0.37186299     0.04000
C2597       C  0.62788709  0.13573394  0.35237282    -0.15200
C2598       C  0.61163861  0.13093103  0.36904859    -0.08600
C2599       C  0.62379913  0.13844608  0.46100918     0.04900
C2600       C  0.61968484  0.12232730  0.47846395    -0.09700
C2601       C  0.61775866  0.12218447  0.51365245    -0.00100
C2602       C  0.62026025  0.13845829  0.53222576    -0.00200
C2603       C  0.62446673  0.15457632  0.51456198    -0.13200
C2604       C  0.62623202  0.15469755  0.47936381     0.00300
C2605       C  0.61384566  0.10500320  0.52982032     0.39600
C2606       C  0.63030252  0.17170758  0.46268337     0.36200
C2607       C  0.59280604  0.12732867  0.41939038     0.35900
C2608       C  0.65983833  0.14721334  0.35660843     0.36700
N2609       N  0.61066139  0.09120536  0.54263459    -0.44100
N2610       N  0.63365635  0.18532080  0.44934776    -0.44600
N2611       N  0.67352247  0.15139713  0.34434368    -0.41900
N2612       N  0.57903693  0.12348488  0.43169693    -0.43400
H2613       H  0.59990796  0.12646232  0.35465439     0.12800
H2614       H  0.65271185  0.14740316  0.42211200     0.09300
H2615       H  0.61801102  0.10974455  0.46443240     0.10400
H2616       H  0.62642325  0.16720598  0.52830766     0.16200
C2617       C  0.62926532  0.23418922  0.30193808    -0.02000
C2618       C  0.61284377  0.24388721  0.30501320     0.06600
C2619       C  0.59678157  0.23591965  0.29297698    -0.08000
C2620       C  0.59685528  0.21867183  0.27758166     0.04000
C2621       C  0.61340313  0.20884677  0.27393421    -0.15200
C2622       C  0.62942474  0.21688731  0.28683417    -0.08600
C2623       C  0.61224196  0.26239488  0.32057958     0.04900
C2624       C  0.62068338  0.27702645  0.30391999    -0.09700
C2625       C  0.62115701  0.29446508  0.31846493    -0.00100
C2626       C  0.61306859  0.29751695  0.35045843    -0.00200
C2627       C  0.60411241  0.28296364  0.36652391    -0.13200
C2628       C  0.60368811  0.26555103  0.35197982     0.00300
C2629       C  0.62950368  0.30904105  0.29946327     0.39600
C2630       C  0.59495870  0.25099121  0.37037047     0.36200
C2631       C  0.64614764  0.24179979  0.31415859     0.35900
C2632       C  0.57961580  0.21163819  0.26599511     0.36700
N2633       N  0.63611437  0.32065755  0.28395378    -0.44100
N2634       N  0.58795037  0.23936150  0.38521921    -0.44600
N2635       N  0.56571020  0.20616095  0.25679765    -0.41900
N2636       N  0.65960930  0.24807716  0.32386843    -0.43400
H2637       H  0.64229350  0.20981092  0.28471477     0.12800
H2638       H  0.58410127  0.24333119  0.29536477     0.09300
H2639       H  0.62699230  0.27476945  0.27947570     0.10400
H2640       H  0.59786508  0.28505433  0.39107579     0.16200
C2641       C  0.87585467  0.86712537  0.54415645    -0.02000
C2642       C  0.86390067  0.88027104  0.55791148     0.06600
C2643       C  0.85213342  0.88958187  0.53599065    -0.08000
C2644       C  0.85238417  0.88621942  0.50104647     0.04000
C2645       C  0.86450214  0.87325512  0.48738800    -0.15200
C2646       C  0.87609413  0.86377625  0.50918958    -0.08600
C2647       C  0.86354671  0.88442888  0.59498484     0.04900
C2648       C  0.87932794  0.89095611  0.61095829    -0.09700
C2649       C  0.87999885  0.89353798  0.64618935    -0.00100
C2650       C  0.86456560  0.88946756  0.66645168    -0.00200
C2651       C  0.84848087  0.88396480  0.64988841    -0.13200
C2652       C  0.84785481  0.88146812  0.61476641     0.00300
C2653       C  0.89695725  0.89972667  0.66051473     0.39600
C2654       C  0.83112061  0.87502899  0.59987430     0.36200
C2655       C  0.88809053  0.85695042  0.56539803     0.35900
C2656       C  0.84057322  0.89673717  0.47946630     0.36700
N2657       N  0.91064398  0.90474875  0.67154362    -0.44100
N2658       N  0.81768143  0.86991944  0.58797223    -0.44600
N2659       N  0.83112377  0.90517477  0.46218511    -0.41900
N2660       N  0.89795678  0.84884965  0.58241684    -0.43400
H2661       H  0.88571751  0.85411110  0.49875542     0.12800
H2662       H  0.84299424  0.89978822  0.54613723     0.09300
H2663       H  0.89134338  0.89368858  0.59583059     0.10400
H2664       H  0.83632938  0.88108170  0.66451891     0.16200
C2665       C  0.88797436  0.88726523  0.03914801    -0.02000
C2666       C  0.87600085  0.87703482  0.05935408     0.06600
C2667       C  0.86451695  0.86422397  0.04394839    -0.08000
C2668       C  0.86464435  0.86162726  0.00874162     0.04000
C2669       C  0.87648686  0.87208832  0.98808809    -0.15200
C2670       C  0.88826996  0.88462254  0.00416910    -0.08600
C2671       C  0.87518296  0.87964918  0.09657195     0.04900
C2672       C  0.85933598  0.88686714  0.11114333    -0.09700
C2673       C  0.85793837  0.88912741  0.14622782    -0.00100
C2674       C  0.87266112  0.88431489  0.16717334    -0.00200
C2675       C  0.88867156  0.87759941  0.15256687    -0.13200
C2676       C  0.88996446  0.87504342  0.11759215     0.00300
C2677       C  0.84134913  0.89645457  0.16027964     0.39600
C2678       C  0.90627591  0.86693150  0.10400199     0.36200
C2679       C  0.89959104  0.90110682  0.05362349     0.35900
C2680       C  0.85240649  0.84817537  0.99502647     0.36700
N2681       N  0.82811073  0.90233729  0.17172129    -0.44100
N2682       N  0.91935313  0.86043991  0.09309209    -0.44600
N2683       N  0.84247494  0.83730095  0.98465085    -0.41900
N2684       N  0.90887163  0.91216839  0.06534154    -0.43400
H2685       H  0.89746901  0.89298139  0.98937284     0.12800
H2686       H  0.85535502  0.85624506  0.05956667     0.09300
H2687       H  0.84800931  0.89059542  0.09507807     0.10400
H2688       H  0.89987156  0.87353317  0.16867357     0.16200
C2689       C  0.62689831  0.98712131  0.64637771    -0.02000
C2690       C  0.62994727  0.99970916  0.62004665     0.06600
C2691       C  0.63468774  0.99322328  0.58789148    -0.08000
C2692       C  0.63665832  0.97453869  0.58174850     0.04000
C2693       C  0.63431981  0.96191248  0.60840412    -0.15200
C2694       C  0.62909171  0.96842275  0.64040181    -0.08600
C2695       C  0.62935173  0.01972496  0.62578001     0.04900
C2696       C  0.64577241  0.02937005  0.62605530    -0.09700
C2697       C  0.64617018  0.04819367  0.63154967    -0.00100
C2698       C  0.62975175  0.05793941  0.63687928    -0.00200
C2699       C  0.61320523  0.04821816  0.63561242    -0.13200
C2700       C  0.61291947  0.02928561  0.63021350     0.00300
C2701       C  0.66372978  0.05702307  0.63090327     0.39600
C2702       C  0.59566729  0.01989923  0.62902102     0.36200
C2703       C  0.62191951  0.99307630  0.67990119     0.35900
C2704       C  0.64008053  0.96871711  0.54746037     0.36700
N2705       N  0.67788038  0.06393828  0.63039981    -0.44100
N2706       N  0.58191517  0.01223136  0.62801412    -0.44600
N2707       N  0.64257474  0.96419472  0.51981628    -0.41900
N2708       N  0.61784955  0.99775719  0.70679902    -0.43400
H2709       H  0.62702783  0.95889718  0.66098758     0.12800
H2710       H  0.63676807  0.00283601  0.56744868     0.09300
H2711       H  0.65841713  0.02207675  0.62213358     0.10400
H2712       H  0.60046971  0.05532435  0.63954229     0.16200
C2713       C  0.53001324  0.86010720  0.61788305    -0.02000
C2714       C  0.52229724  0.86826785  0.64679599     0.06600
C2715       C  0.53372652  0.87771725  0.66932170    -0.08000
C2716       C  0.55255644  0.87909664  0.66332838     0.04000
C2717       C  0.56024731  0.87074903  0.63446753    -0.15200
C2718       C  0.54872731  0.86128477  0.61216392    -0.08600
C2719       C  0.50234736  0.86700059  0.65346258     0.04900
C2720       C  0.49426397  0.84976455  0.65708441    -0.09700
C2721       C  0.47536484  0.84782218  0.66049053    -0.00100
C2722       C  0.46407184  0.86339588  0.66039310    -0.00200
C2723       C  0.47226265  0.88065275  0.65742066    -0.13200
C2724       C  0.49116171  0.88256215  0.65414449     0.00300
C2725       C  0.46793978  0.82964847  0.66266072     0.39600
C2726       C  0.49868325  0.90062589  0.65065305     0.36200
C2727       C  0.51892910  0.85102341  0.59288929     0.35900
C2728       C  0.56369557  0.88851845  0.68775095     0.36700
N2729       N  0.46195002  0.81509934  0.66435687    -0.44100
N2730       N  0.50469191  0.91512257  0.64799285    -0.44600
N2731       N  0.57261543  0.89600258  0.70744757    -0.41900
N2732       N  0.51008802  0.84377746  0.57277443    -0.43400
H2733       H  0.55430125  0.85510517  0.58949868     0.12800
H2734       H  0.52792611  0.88392936  0.69174018     0.09300
H2735       H  0.50277420  0.83772895  0.65665016     0.10400
H2736       H  0.46388287  0.89277301  0.65793830     0.16200
C2737       C  0.74242348  0.89910188  0.48857632    -0.02000
C2738       C  0.74438614  0.89098781  0.45647984     0.06600
C2739       C  0.72928120  0.88292658  0.44103985    -0.08000
C2740       C  0.71244348  0.88232266  0.45746253     0.04000
C2741       C  0.71053334  0.88977273  0.49034117    -0.15200
C2742       C  0.72556540  0.89848505  0.50521639    -0.08600
C2743       C  0.76219807  0.89006881  0.43896067     0.04900
C2744       C  0.77555571  0.87840246  0.45167121    -0.09700
C2745       C  0.79221925  0.87630097  0.43499524    -0.00100
C2746       C  0.79576540  0.88608972  0.40478587    -0.00200
C2747       C  0.78237393  0.89797395  0.39242330    -0.13200
C2748       C  0.76566371  0.89991841  0.40910844     0.00300
C2749       C  0.80551933  0.86443783  0.45025641     0.39600
C2750       C  0.75229620  0.91220971  0.39541091     0.36200
C2751       C  0.75748594  0.90828025  0.50462437     0.48700
C2752       C  0.69734585  0.87428850  0.43948582     0.36700
N2753       N  0.81608925  0.85492648  0.46269680    -0.44100
N2754       N  0.74151587  0.92204064  0.38457228    -0.44600
N2755       N  0.68538193  0.86781210  0.42477680    -0.41900
N2756       N  0.76956934  0.91571646  0.51731260    -0.43400
H2757       H  0.72427679  0.90442719  0.53020245     0.12800
H2758       H  0.73073465  0.87688120  0.41615110     0.09300
H2759       H  0.77286544  0.87079710  0.47464144     0.10400
H2760       H  0.78485973  0.90560964  0.36942582     0.16200
C2761       C  0.64170944  0.02770169  0.14238516    -0.02000
C2762       C  0.62970088  0.01920092  0.11961432     0.06600
C2763       C  0.61664925  0.02979306  0.10289287    -0.08000
C2764       C  0.61535123  0.04861788  0.10877228     0.04000
C2765       C  0.62735035  0.05717098  0.13195108    -0.15200
C2766       C  0.64041327  0.04635588  0.14840190    -0.08600
C2767       C  0.63068305  0.99924792  0.11345888     0.04900
C2768       C  0.62828997  0.98737419  0.14087215    -0.09700
C2769       C  0.63089476  0.96862663  0.13722690    -0.00100
C2770       C  0.63550785  0.96129994  0.10534269    -0.00200
C2771       C  0.63769868  0.97317965  0.07772956    -0.13200
C2772       C  0.63535256  0.99202444  0.08157092     0.00300
C2773       C  0.62998844  0.95740985  0.16712426     0.39600
C2774       C  0.63853525  0.00378136  0.05291722     0.36200
C2775       C  0.65582829  0.01762049  0.15939333     0.35900
C2776       C  0.60178942  0.05858362  0.09013715     0.36700
N2777       N  0.62946624  0.94846261  0.19115760    -0.44100
N2778       N  0.64108159  0.01335623  0.03017891    -0.44600
N2779       N  0.59082928  0.06623432  0.07478059    -0.41900
N2780       N  0.66711991  0.00949060  0.17295139    -0.43400
H2781       H  0.64970672  0.05242073  0.16645638     0.12800
H2782       H  0.60738722  0.02329130  0.08529530     0.09300
H2783       H  0.62492260  0.99288352  0.16554420     0.10400
H2784       H  0.64129281  0.96773635  0.05312447     0.16200
C2785       C  0.53384967  0.85346532  0.14989928    -0.02000
C2786       C  0.52229938  0.86808248  0.14158085     0.06600
C2787       C  0.52993742  0.88445126  0.13018388    -0.08000
C2788       C  0.54878477  0.88631714  0.12619142     0.04000
C2789       C  0.56043692  0.87161703  0.13407262    -0.15200
C2790       C  0.55272136  0.85530685  0.14602280    -0.08600
C2791       C  0.50223983  0.86671640  0.14540691     0.04900
C2792       C  0.49499207  0.86523267  0.17797871    -0.09700
C2793       C  0.47622762  0.86408738  0.18313659    -0.00100
C2794       C  0.46421730  0.86429203  0.15521885    -0.00200
C2795       C  0.47144871  0.86618746  0.12253004    -0.13200
C2796       C  0.49034173  0.86727370  0.11744381     0.00300
C2797       C  0.46978279  0.86377229  0.21760316     0.39600
C2798       C  0.49728479  0.86836243  0.08336418     0.36200
C2799       C  0.52656034  0.83623155  0.16114427     0.35900
C2800       C  0.55557712  0.90297412  0.11148442     0.36700
N2801       N  0.46509102  0.86376793  0.24552372    -0.44100
N2802       N  0.50293873  0.86916001  0.05609045    -0.44600
N2803       N  0.56093299  0.91628850  0.09941608    -0.41900
N2804       N  0.52065152  0.82243784  0.17008024    -0.43400
H2805       H  0.56144206  0.84382103  0.15163928     0.12800
H2806       H  0.52108046  0.89572121  0.12383166     0.09300
H2807       H  0.50408271  0.86520506  0.19954990     0.10400
H2808       H  0.46237230  0.86644936  0.10096541     0.16200
C2809       C  0.61776249  0.88067588  0.86047082    -0.02000
C2810       C  0.63207370  0.87399449  0.84040480     0.06600
C2811       C  0.64701047  0.86563414  0.85606909    -0.08000
C2812       C  0.64810401  0.86430353  0.89135307     0.04000
C2813       C  0.63381348  0.87115336  0.91162855    -0.15200
C2814       C  0.61862020  0.87899943  0.89552677    -0.08600
C2815       C  0.63207130  0.87620089  0.80315045     0.04900
C2816       C  0.63177308  0.89379969  0.78925429    -0.09700
C2817       C  0.63253711  0.89644440  0.75419554    -0.00100
C2818       C  0.63402379  0.88125443  0.73254771    -0.00200
C2819       C  0.63400986  0.86367606  0.74656310    -0.13200
C2820       C  0.63288152  0.86103897  0.78143068     0.00300
C2821       C  0.63256323  0.91482455  0.74138721     0.39600
C2822       C  0.63227085  0.84264758  0.79425429     0.36200
C2823       C  0.60211951  0.88951181  0.84579809     0.35900
C2824       C  0.66452167  0.85693886  0.90579648     0.36700
N2825       N  0.63253443  0.92962495  0.73142208    -0.44100
N2826       N  0.63174640  0.82790583  0.80447636    -0.44600
N2827       N  0.67775291  0.85117428  0.91735304    -0.41900
N2828       N  0.58965001  0.89675690  0.83419497    -0.43400
H2829       H  0.60740135  0.88429377  0.91037642     0.12800
H2830       H  0.65817236  0.86070018  0.84064609     0.09300
H2831       H  0.63124626  0.90551570  0.80591890     0.10400
H2832       H  0.63481714  0.85188345  0.73010420     0.16200
C2833       C  0.65543134  0.87879985  0.28559849    -0.02000
C2834       C  0.63903787  0.87974480  0.30394637     0.06600
C2835       C  0.62273678  0.88313116  0.28664050    -0.08000
C2836       C  0.62257158  0.88522469  0.25133504     0.04000
C2837       C  0.63901116  0.88388653  0.23281132    -0.15200
C2838       C  0.65530308  0.88084075  0.25048365    -0.08600
C2839       C  0.63888424  0.87756480  0.34127966     0.04900
C2840       C  0.64718110  0.89102589  0.36114244    -0.09700
C2841       C  0.64778405  0.88939402  0.39632273    -0.00100
C2842       C  0.63989398  0.87412030  0.41224897    -0.00200
C2843       C  0.63188246  0.86046131  0.39250406    -0.13200
C2844       C  0.63137892  0.86204406  0.35715382     0.00300
C2845       C  0.65686081  0.90340083  0.41568431     0.39600
C2846       C  0.62345967  0.84742525  0.33772332     0.36200
C2847       C  0.67249570  0.87512162  0.30222618     0.35900
C2848       C  0.60527727  0.88775462  0.23475642     0.36700
N2849       N  0.66426991  0.91447607  0.43130284    -0.44100
N2850       N  0.61717634  0.83558196  0.32235235    -0.44600
N2851       N  0.59141689  0.88974308  0.22145932    -0.41900
N2852       N  0.68612239  0.87215476  0.31569526    -0.43400
H2853       H  0.66802866  0.87975816  0.23672175     0.12800
H2854       H  0.61010554  0.88396187  0.30074815     0.09300
H2855       H  0.65323433  0.90282492  0.34905892     0.10400
H2856       H  0.62572010  0.84876516  0.40472498     0.16200
C2857       C  0.76823556  0.87467075  0.91845918    -0.02000
C2858       C  0.76339041  0.88858074  0.94135061     0.06600
C2859       C  0.77567300  0.90291668  0.94706836    -0.08000
C2860       C  0.79261671  0.90346880  0.93066080     0.04000
C2861       C  0.79760986  0.88933853  0.90818872    -0.15200
C2862       C  0.78521047  0.87509430  0.90236355    -0.08600
C2863       C  0.74586352  0.88804070  0.96035346     0.04900
C2864       C  0.74219986  0.87317601  0.98160310    -0.09700
C2865       C  0.72570526  0.87184102  0.99923087    -0.00100
C2866       C  0.71271787  0.88592645  0.99671604    -0.00200
C2867       C  0.71651905  0.90095108  0.97594623    -0.13200
C2868       C  0.73276580  0.90196018  0.95741023     0.00300
C2869       C  0.72261949  0.85599144  0.02003773     0.39600
C2870       C  0.73523065  0.91686872  0.93411570     0.36200
C2871       C  0.75589556  0.85994317  0.91068303     0.35900
C2872       C  0.80485382  0.91821641  0.93875257     0.36700
N2873       N  0.72024461  0.84320505  0.03653360    -0.44100
N2874       N  0.73711362  0.92873443  0.91521700    -0.44600
N2875       N  0.81446753  0.93013890  0.94563729    -0.41900
N2876       N  0.74598703  0.84814694  0.90452210    -0.43400
H2877       H  0.78877450  0.86424154  0.88498313     0.12800
H2878       H  0.77213078  0.91354821  0.96492638     0.09300
H2879       H  0.75223337  0.86247122  0.98416842     0.10400
H2880       H  0.70645301  0.91161369  0.97320221     0.16200
C2881       C  0.84779209  0.72893455  0.82073926    -0.02000
C2882       C  0.86107681  0.74201085  0.81186859     0.06600
C2883       C  0.87501555  0.73694224  0.78934888    -0.08000
C2884       C  0.87636104  0.71904362  0.77710393     0.04000
C2885       C  0.86327367  0.70591924  0.78643542    -0.15200
C2886       C  0.84879414  0.71122023  0.80748649    -0.08600
C2887       C  0.86151090  0.76065065  0.82717631     0.04900
C2888       C  0.87705820  0.76611533  0.84523158    -0.09700
C2889       C  0.87911333  0.78411101  0.85657598    -0.00100
C2890       C  0.86529350  0.79698580  0.85051741    -0.00200
C2891       C  0.84923917  0.79124200  0.83454771    -0.13200
C2892       C  0.84734984  0.77337323  0.82243104     0.00300
C2893       C  0.89573138  0.78921723  0.87353267     0.39600
C2894       C  0.83141774  0.76895463  0.80279636     0.36200
C2895       C  0.83396003  0.73286509  0.84563415     0.35900
C2896       C  0.89169525  0.71421912  0.75614667     0.36700
N2897       N  0.90903986  0.79329791  0.88717485    -0.44100
N2898       N  0.81860158  0.76551256  0.78709322    -0.44600
N2899       N  0.90401668  0.71031871  0.73943129    -0.41900
N2900       N  0.82291101  0.73603746  0.86564447    -0.43400
H2901       H  0.83908810  0.70105469  0.81597823     0.12800
H2902       H  0.88529741  0.74685351  0.78233073     0.09300
H2903       H  0.88792775  0.75642856  0.84941526     0.10400
H2904       H  0.83875336  0.80115017  0.82895081     0.16200
C2905       C  0.85119783  0.72631679  0.32571582    -0.02000
C2906       C  0.86414273  0.73970991  0.31660640     0.06600
C2907       C  0.87759393  0.73522593  0.29262567    -0.08000
C2908       C  0.87878517  0.71761563  0.27907482     0.04000
C2909       C  0.86598809  0.70427999  0.28851266    -0.15200
C2910       C  0.85199742  0.70896975  0.31106603    -0.08600
C2911       C  0.86464378  0.75813682  0.33266815     0.04900
C2912       C  0.88093097  0.76413080  0.34765165    -0.09700
C2913       C  0.88290688  0.78210011  0.35909907    -0.00100
C2914       C  0.86819420  0.79435641  0.35670271    -0.00200
C2915       C  0.85153374  0.78799441  0.34395960    -0.13200
C2916       C  0.84978831  0.77028007  0.33115002     0.00300
C2917       C  0.90040291  0.78789586  0.37175228     0.39600
C2918       C  0.83324710  0.76563260  0.31351436     0.36200
C2919       C  0.83789458  0.72940002  0.35199071     0.35900
C2920       C  0.89354839  0.71329535  0.25638277     0.36700
N2921       N  0.91442934  0.79263956  0.38168674    -0.44100
N2922       N  0.81997477  0.76200728  0.29933001    -0.44600
N2923       N  0.90536237  0.70972368  0.23820756    -0.41900
N2924       N  0.82713895  0.73168425  0.37295306    -0.43400
H2925       H  0.84255710  0.69854788  0.31954777     0.12800
H2926       H  0.88758111  0.74537175  0.28530944     0.09300
H2927       H  0.89242424  0.75493962  0.34907311     0.10400
H2928       H  0.84033711  0.79743395  0.34086570     0.16200
C2929       C  0.87260673  0.60663927  0.52869654    -0.02000
C2930       C  0.87424798  0.62379374  0.54460837     0.06600
C2931       C  0.87663622  0.63935306  0.52465036    -0.08000
C2932       C  0.87662179  0.63817917  0.48936137     0.04000
C2933       C  0.87415161  0.62113436  0.47337324    -0.15200
C2934       C  0.87260709  0.60543314  0.49329068    -0.08600
C2935       C  0.87343077  0.62599198  0.58195860     0.04900
C2936       C  0.88895224  0.63207366  0.59923214    -0.09700
C2937       C  0.88872471  0.63437995  0.63442444    -0.00100
C2938       C  0.87260249  0.63098029  0.65287418    -0.00200
C2939       C  0.85695599  0.62537074  0.63543085    -0.13200
C2940       C  0.85725346  0.62281853  0.60030520     0.00300
C2941       C  0.90516378  0.64034144  0.65101941     0.39600
C2942       C  0.84082692  0.61688323  0.58362632     0.36200
C2943       C  0.87082717  0.59013203  0.54814568     0.35900
C2944       C  0.87970545  0.65462172  0.47017388     0.36700
N2945       N  0.91835243  0.64513907  0.66425582    -0.44100
N2946       N  0.82772208  0.61202342  0.57018146    -0.44600
N2947       N  0.88237593  0.66783434  0.45504875    -0.41900
N2948       N  0.86932968  0.57688174  0.56368703    -0.43400
H2949       H  0.87080954  0.59229990  0.48120307     0.12800
H2950       H  0.87827247  0.65251203  0.53673467     0.09300
H2951       H  0.90135396  0.63477005  0.58520025     0.10400
H2952       H  0.84467181  0.62224257  0.64946366     0.16200
C2953       C  0.87885084  0.63780428  0.09848906    -0.02000
C2954       C  0.86691528  0.62548619  0.08227723     0.06600
C2955       C  0.85500550  0.61494065  0.10186591    -0.08000
C2956       C  0.85486567  0.61644777  0.13712321     0.04000
C2957       C  0.86702737  0.62846964  0.15334929    -0.15200
C2958       C  0.87895012  0.63905854  0.13387278    -0.08600
C2959       C  0.86611335  0.62376325  0.04490254     0.04900
C2960       C  0.87148962  0.60741165  0.02940863    -0.09700
C2961       C  0.87046652  0.60521574  0.99417947    -0.00100
C2962       C  0.86397130  0.61961046  0.97388155    -0.00200
C2963       C  0.85825552  0.63579457  0.98974134    -0.13200
C2964       C  0.85918955  0.63791825  0.02479067     0.00300
C2965       C  0.87538577  0.58786130  0.97971978     0.39600
C2966       C  0.85253759  0.65459025  0.03966755     0.36200
C2967       C  0.89117685  0.64914984  0.07936587     0.35900
C2968       C  0.84212101  0.60550016  0.15613333     0.36700
N2969       N  0.87919954  0.57395619  0.96795085    -0.44100
N2970       N  0.84722097  0.66792317  0.05168718    -0.44600
N2971       N  0.83177948  0.59677500  0.17115096    -0.41900
N2972       N  0.90091128  0.65838379  0.06400374    -0.43400
H2973       H  0.88848214  0.64811991  0.14633717     0.12800
H2974       H  0.84566085  0.60564181  0.08950648     0.09300
H2975       H  0.87641039  0.59631737  0.04493336     0.10400
H2976       H  0.85314903  0.64698828  0.97467864     0.16200
C2977       C  0.65542635  0.72876512  0.56291374    -0.02000
C2978       C  0.64234029  0.74209155  0.57107889     0.06600
C2979       C  0.62789349  0.73745716  0.59278436    -0.08000
C2980       C  0.62585392  0.71970013  0.60496466     0.04000
C2981       C  0.63884058  0.70638472  0.59661174    -0.15200
C2982       C  0.65384774  0.71123874  0.57649454    -0.08600
C2983       C  0.64270299  0.76070402  0.55632207     0.04900
C2984       C  0.62713354  0.76696871  0.53939467    -0.09700
C2985       C  0.62536738  0.78529737  0.53045625    -0.00100
C2986       C  0.63968343  0.79753702  0.53710569    -0.00200
C2987       C  0.65584610  0.79099063  0.55144199    -0.13200
C2988       C  0.65731659  0.77285024  0.56182425     0.00300
C2989       C  0.60838415  0.79146646  0.51631685     0.39600
C2990       C  0.67316190  0.76760455  0.58097411     0.36200
C2991       C  0.66950325  0.73216216  0.53818782     0.35900
C2992       C  0.61000901  0.71528688  0.62494495     0.36700
N2993       N  0.59473457  0.79648207  0.50524360    -0.44100
N2994       N  0.68587204  0.76344990  0.59632296    -0.44600
N2995       N  0.59726363  0.71179230  0.64088254    -0.41900
N2996       N  0.68071296  0.73484877  0.51822387    -0.43400
H2997       H  0.66346400  0.70084506  0.56877491     0.12800
H2998       H  0.61778342  0.74761759  0.59922870     0.09300
H2999       H  0.61588174  0.75770829  0.53492710     0.10400
H3000       H  0.66669290  0.80046789  0.55756941     0.16200
C3001       C  0.63827229  0.51076289  0.54945148    -0.02000
C3002       C  0.62983195  0.50375012  0.52036214     0.06600
C3003       C  0.62312505  0.51575274  0.49587558    -0.08000
C3004       C  0.62449804  0.53463640  0.50020003     0.04000
C3005       C  0.63253129  0.54181169  0.52987468    -0.15200
C3006       C  0.63950172  0.52961019  0.55406453    -0.08600
C3007       C  0.62917425  0.48393218  0.51365926     0.04900
C3008       C  0.61686312  0.47285705  0.53140593    -0.09700
C3009       C  0.61583466  0.45407620  0.52496683    -0.00100
C3010       C  0.62706856  0.44621915  0.49985038    -0.00200
C3011       C  0.63971103  0.45746512  0.48291388    -0.13200
C3012       C  0.64093406  0.47604019  0.48982366     0.00300
C3013       C  0.60388412  0.44319117  0.54569378     0.39600
C3014       C  0.65462494  0.48673157  0.47263398     0.36200
C3015       C  0.64626199  0.49882677  0.57428189     0.35900
C3016       C  0.61844330  0.54617024  0.47294984     0.36700
N3017       N  0.59443977  0.43454699  0.56275518    -0.44100
N3018       N  0.66563571  0.49534190  0.45910416    -0.44600
N3019       N  0.61368717  0.55532609  0.45090215    -0.41900
N3020       N  0.65270296  0.48915656  0.59395374    -0.43400
H3021       H  0.64589476  0.53477700  0.57682170     0.12800
H3022       H  0.61710901  0.51030117  0.47297720     0.09300
H3023       H  0.60813692  0.47890314  0.55045784     0.10400
H3024       H  0.64868305  0.45181176  0.46384342     0.16200
C3025       C  0.52999870  0.62979399  0.47381415    -0.02000
C3026       C  0.51787191  0.63456227  0.50015997     0.06600
C3027       C  0.52476444  0.63743648  0.53268329    -0.08000
C3028       C  0.54338694  0.63604520  0.53916810     0.04000
C3029       C  0.55568058  0.63209272  0.51262853    -0.15200
C3030       C  0.54879083  0.62863287  0.48018875    -0.08600
C3031       C  0.49785362  0.63594469  0.49505956     0.04900
C3032       C  0.48789979  0.62012696  0.48792471    -0.09700
C3033       C  0.46893382  0.62063655  0.48468701    -0.00100
C3034       C  0.45949635  0.63729160  0.48849349    -0.00200
C3035       C  0.46949924  0.65316400  0.49550478    -0.13200
C3036       C  0.48849279  0.65257843  0.49909219     0.00300
C3037       C  0.45961792  0.60398223  0.47583409     0.39600
C3038       C  0.49817999  0.66927594  0.50604464     0.36200
C3039       C  0.52349434  0.62635471  0.44001821     0.35900
C3040       C  0.54941231  0.63763955  0.57377643     0.36700
N3041       N  0.45214293  0.59065626  0.46866186    -0.44100
N3042       N  0.50599728  0.68263508  0.51156077    -0.44600
N3043       N  0.55416770  0.63866303  0.60157245    -0.41900
N3044       N  0.51827741  0.62354603  0.41293130    -0.43400
H3045       H  0.55808273  0.62530020  0.45980072     0.12800
H3046       H  0.51547225  0.64046546  0.55325535     0.09300
H3047       H  0.49499886  0.60729830  0.48498508     0.10400
H3048       H  0.46246805  0.66604936  0.49807725     0.16200
C3049       C  0.73903622  0.60241544  0.64864187    -0.02000
C3050       C  0.74207167  0.61089572  0.68011176     0.06600
C3051       C  0.72782806  0.62040295  0.69561994    -0.08000
C3052       C  0.71076868  0.62179510  0.68012218     0.04000
C3053       C  0.70766821  0.61353119  0.64825958    -0.15200
C3054       C  0.72190166  0.60363442  0.63311867    -0.08600
C3055       C  0.76020180  0.61067371  0.69676290     0.04900
C3056       C  0.77416608  0.62145466  0.68334799    -0.09700
C3057       C  0.79113145  0.62263972  0.69928483    -0.00100
C3058       C  0.79444910  0.61283496  0.72954341    -0.00200
C3059       C  0.78053643  0.60153346  0.74226936    -0.13200
C3060       C  0.76350988  0.60049625  0.72628866     0.00300
C3061       C  0.80487069  0.63381672  0.68341514     0.39600
C3062       C  0.74959050  0.58890814  0.74050350     0.36200
C3063       C  0.75338414  0.59241809  0.63203556     0.35900
C3064       C  0.69655146  0.63128571  0.69814397     0.36700
N3065       N  0.81570984  0.64287457  0.67043161    -0.44100
N3066       N  0.73836570  0.57964025  0.75173360    -0.44600
N3067       N  0.68516537  0.63885417  0.71265108    -0.41900
N3068       N  0.76505525  0.58448766  0.61907301    -0.43400
H3069       H  0.71976517  0.59715701  0.60880601     0.12800
H3070       H  0.73011586  0.62688831  0.71988937     0.09300
H3071       H  0.77169138  0.62918983  0.66047704     0.10400
H3072       H  0.78278810  0.59382081  0.76522706     0.16200
C3073       C  0.65607349  0.77283946  0.07106954    -0.02000
C3074       C  0.64182001  0.76027503  0.06525164     0.06600
C3075       C  0.62672668  0.76588714  0.04608515    -0.08000
C3076       C  0.62511450  0.78389484  0.03486632     0.04000
C3077       C  0.63910561  0.79650187  0.04161138    -0.15200
C3078       C  0.65479816  0.79058517  0.05845172    -0.08600
C3079       C  0.64150649  0.74174869  0.08079220     0.04900
C3080       C  0.62609128  0.73647233  0.09954820    -0.09700
C3081       C  0.62407032  0.71860811  0.11136586    -0.00100
C3082       C  0.63802830  0.70580921  0.10589727    -0.00200
C3083       C  0.65395889  0.71139358  0.08916658    -0.13200
C3084       C  0.65556301  0.72894859  0.07568059     0.00300
C3085       C  0.60721072  0.71349542  0.12757469     0.39600
C3086       C  0.67088088  0.73279491  0.05391302     0.36200
C3087       C  0.67135592  0.76852756  0.09245824     0.35900
C3088       C  0.60869973  0.78933831  0.01769657     0.36700
N3089       N  0.59364050  0.70937583  0.14033291    -0.44100
N3090       N  0.68315409  0.73588991  0.03647263    -0.44600
N3091       N  0.59552630  0.79376236  0.00405601    -0.41900
N3092       N  0.68367993  0.76512347  0.10944638    -0.43400
H3093       H  0.66537800  0.80035160  0.06463740     0.12800
H3094       H  0.61576672  0.75635119  0.04115409     0.09300
H3095       H  0.61520746  0.74616063  0.10371232     0.10400
H3096       H  0.66443998  0.70145727  0.08356985     0.16200
C3097       C  0.63824043  0.51189406  0.04655293    -0.02000
C3098       C  0.63225392  0.50520406  0.01508613     0.06600
C3099       C  0.62741915  0.51756365  0.98967530    -0.08000
C3100       C  0.62870577  0.53638370  0.99499511     0.04000
C3101       C  0.63541765  0.54315595  0.02610942    -0.15200
C3102       C  0.64013802  0.53066197  0.05156473    -0.08600
C3103       C  0.63068245  0.48536953  0.00833157     0.04900
C3104       C  0.61359740  0.47795830  0.00044469    -0.09700
C3105       C  0.61160046  0.45938296  0.99311146    -0.00100
C3106       C  0.62692372  0.44779195  0.99419543    -0.00200
C3107       C  0.64397357  0.45531754  0.00232289    -0.13200
C3108       C  0.64601119  0.47388404  0.00884969     0.00300
C3109       C  0.59397573  0.45298677  0.98229950     0.39600
C3110       C  0.66412823  0.48087249  0.01450603     0.36200
C3111       C  0.64160339  0.49975990  0.07454411     0.35900
C3112       C  0.62315904  0.54829341  0.96792367     0.36700
N3113       N  0.57984807  0.44803311  0.97326437    -0.44100
N3114       N  0.67871561  0.48630117  0.01893849    -0.44600
N3115       N  0.61852032  0.55777348  0.94626512    -0.41900
N3116       N  0.64411734  0.48990432  0.09683684    -0.43400
H3117       H  0.64478335  0.53557684  0.07592895     0.12800
H3118       H  0.62259562  0.51245771  0.96556121     0.09300
H3119       H  0.60182353  0.48680667  0.99947598     0.10400
H3120       H  0.65593031  0.44670419  0.00292846     0.16200
C3121       C  0.52927355  0.64312749  0.02150557    -0.02000
C3122       C  0.52216587  0.63491405  0.99216644     0.06600
C3123       C  0.53406800  0.62627966  0.96945523    -0.08000
C3124       C  0.55284187  0.62558369  0.97585170     0.04000
C3125       C  0.55994164  0.63377946  0.00536150    -0.15200
C3126       C  0.54793846  0.64258293  0.02771347    -0.08600
C3127       C  0.50235001  0.63538414  0.98500501     0.04900
C3128       C  0.49402944  0.65222466  0.97925156    -0.09700
C3129       C  0.47520978  0.65353962  0.97458513    -0.00100
C3130       C  0.46420090  0.63766366  0.97591144    -0.00200
C3131       C  0.47271711  0.62075407  0.98120532    -0.13200
C3132       C  0.49158689  0.61950630  0.98551919     0.00300
C3133       C  0.46774516  0.67146999  0.96927362     0.39600
C3134       C  0.49956523  0.60184172  0.99119862     0.36200
C3135       C  0.51763550  0.65165843  0.04632037     0.35900
C3136       C  0.56448078  0.61685635  0.95134386     0.36700
N3137       N  0.46195425  0.68590372  0.96487527    -0.44100
N3138       N  0.50600856  0.58769661  0.99565631    -0.44600
N3139       N  0.57374953  0.60987313  0.93156640    -0.41900
N3140       N  0.50840409  0.65849038  0.06634281    -0.43400
H3141       H  0.55307982  0.64865496  0.05081296     0.12800
H3142       H  0.52865980  0.62010819  0.94667199     0.09300
H3143       H  0.50231810  0.66445703  0.97875463     0.10400
H3144       H  0.46464888  0.60838765  0.98171479     0.16200
C3145       C  0.63073597  0.61309084  0.78270526    -0.02000
C3146       C  0.63471113  0.62857975  0.80222501     0.06600
C3147       C  0.63832350  0.64522942  0.78608762    -0.08000
C3148       C  0.63765962  0.64662604  0.75069781     0.04000
C3149       C  0.63357007  0.63105104  0.73115309    -0.15200
C3150       C  0.63028743  0.61441259  0.74764458    -0.08600
C3151       C  0.63543046  0.62734713  0.83949409     0.04900
C3152       C  0.65242643  0.62667154  0.85517335    -0.09700
C3153       C  0.65383456  0.62412517  0.89009351    -0.00100
C3154       C  0.63792302  0.62247217  0.91013804    -0.00200
C3155       C  0.62086705  0.62293286  0.89412559    -0.13200
C3156       C  0.61953019  0.62538054  0.85908801     0.00300
C3157       C  0.67183358  0.62239385  0.90417485     0.39600
C3158       C  0.60176311  0.62614740  0.84366359     0.36200
C3159       C  0.62713300  0.59561632  0.79803554     0.35900
C3160       C  0.64037894  0.66422677  0.73528691     0.36700
N3161       N  0.68638974  0.62086904  0.91482688    -0.44100
N3162       N  0.58761063  0.62680318  0.83098684    -0.44600
N3163       N  0.64243809  0.67831728  0.72278909    -0.41900
N3164       N  0.62413322  0.58158772  0.81010024    -0.43400
H3165       H  0.62740964  0.60223631  0.73305472     0.12800
H3166       H  0.64137383  0.65716650  0.80120079     0.09300
H3167       H  0.66465488  0.62771784  0.83989910     0.10400
H3168       H  0.60855060  0.62188285  0.90909045     0.16200
C3169       C  0.62786284  0.60878726  0.28304156    -0.02000
C3170       C  0.63450803  0.62280367  0.30375422     0.06600
C3171       C  0.64117153  0.63883428  0.28901193    -0.08000
C3172       C  0.64099581  0.64118178  0.25379216     0.04000
C3173       C  0.63380634  0.62728753  0.23278299    -0.15200
C3174       C  0.62737239  0.61117191  0.24810264    -0.08600
C3175       C  0.63465877  0.62078513  0.34089508     0.04900
C3176       C  0.65101568  0.61645391  0.35696522    -0.09700
C3177       C  0.65165490  0.61420413  0.39202825    -0.00100
C3178       C  0.63563708  0.61627167  0.41150375    -0.00200
C3179       C  0.61915774  0.62005505  0.39516123    -0.13200
C3180       C  0.61859999  0.62248561  0.36011962     0.00300
C3181       C  0.66884820  0.60948289  0.40723652     0.39600
C3182       C  0.60159877  0.62747405  0.34452651     0.36200
C3183       C  0.62208775  0.59155948  0.29703633     0.35900
C3184       C  0.64818361  0.65797365  0.24034807     0.36700
N3185       N  0.68267050  0.60563756  0.41916243    -0.44100
N3186       N  0.58801669  0.63159767  0.33199360    -0.44600
N3187       N  0.65412273  0.67145608  0.22996389    -0.41900
N3188       N  0.61763077  0.57769567  0.30819529    -0.43400
H3189       H  0.62229209  0.60005794  0.23271372     0.12800
H3190       H  0.64649336  0.64953989  0.30511908     0.09300
H3191       H  0.66329317  0.61483213  0.34202936     0.10400
H3192       H  0.60686642  0.62196710  0.40993844     0.16200
C3193       C  0.74024626  0.60218267  0.15310634    -0.02000
C3194       C  0.74261494  0.60878971  0.18627284     0.06600
C3195       C  0.72772149  0.61642097  0.20328661    -0.08000
C3196       C  0.71080097  0.61818785  0.18729035     0.04000
C3197       C  0.70853880  0.61216324  0.15354484    -0.15200
C3198       C  0.72330231  0.60377823  0.13714730    -0.08600
C3199       C  0.76082190  0.60912661  0.20263357     0.04900
C3200       C  0.77399593  0.62116890  0.19013782    -0.09700
C3201       C  0.79116689  0.62255006  0.20519557    -0.00100
C3202       C  0.79542256  0.61183716  0.23394144    -0.00200
C3203       C  0.78228627  0.59937730  0.24578646    -0.13200
C3204       C  0.76512569  0.59798455  0.23044274     0.00300
C3205       C  0.80422373  0.63465978  0.18964993     0.39600
C3206       C  0.75222445  0.58486444  0.24328681     0.36200
C3207       C  0.75508045  0.59374770  0.13504491     0.35900
C3208       C  0.69595089  0.62594011  0.20634638     0.36700
N3209       N  0.81461544  0.64432173  0.17689268    -0.44100
N3210       N  0.74188616  0.57430272  0.25346018    -0.44600
N3211       N  0.68408260  0.63214350  0.22171772    -0.41900
N3212       N  0.76703758  0.58697823  0.12077239    -0.43400
H3213       H  0.72175663  0.59890077  0.11143135     0.12800
H3214       H  0.72945222  0.62139903  0.22890083     0.09300
H3215       H  0.77079628  0.62958765  0.16844478     0.10400
H3216       H  0.78528280  0.59088628  0.26746106     0.16200
C3217       C  0.27417184  0.86543634  0.66450743    -0.02000
C3218       C  0.26134694  0.86156384  0.68988670     0.06600
C3219       C  0.26730436  0.85773792  0.72289164    -0.08000
C3220       C  0.28589064  0.85850937  0.73105463     0.04000
C3221       C  0.29860642  0.86324559  0.70589001    -0.15200
C3222       C  0.29255614  0.86623999  0.67264696    -0.08600
C3223       C  0.24166700  0.86270500  0.68263931     0.04900
C3224       C  0.23138529  0.84670169  0.68001329    -0.09700
C3225       C  0.21269347  0.84739022  0.67314303    -0.00100
C3226       C  0.20404965  0.86443965  0.66899491    -0.00200
C3227       C  0.21462780  0.88038542  0.67073904    -0.13200
C3228       C  0.23323222  0.87965358  0.67744476     0.00300
C3229       C  0.20273050  0.83045675  0.67235129     0.39600
C3230       C  0.24333047  0.89650730  0.67960522     0.36200
C3231       C  0.26873920  0.86907628  0.63008797     0.35900
C3232       C  0.29148811  0.85545617  0.76550041     0.36700
N3233       N  0.19497814  0.81673912  0.67179216    -0.44100
N3234       N  0.25144157  0.90999469  0.68118768    -0.44600
N3235       N  0.29611700  0.85303794  0.79306431    -0.41900
N3236       N  0.26439844  0.87206820  0.60255302    -0.43400
H3237       H  0.30225983  0.86959075  0.65291460     0.12800
H3238       H  0.25738754  0.85476437  0.74244780     0.09300
H3239       H  0.23797124  0.83366015  0.68366154     0.10400
H3240       H  0.20824106  0.89356907  0.66760130     0.16200
C3241       C  0.00896718  0.85850046  0.70350772    -0.02000
C3242       C  0.00095555  0.86507482  0.73346316     0.06600
C3243       C  0.01203806  0.86889326  0.76142534    -0.08000
C3244       C  0.03093435  0.86648718  0.75977321     0.04000
C3245       C  0.03908441  0.86028552  0.72947757    -0.15200
C3246       C  0.02783478  0.85619294  0.70171943    -0.08600
C3247       C  0.98094593  0.86702583  0.73686347     0.04900
C3248       C  0.97017594  0.85129555  0.73704259    -0.09700
C3249       C  0.95144909  0.85222476  0.74315639    -0.00100
C3250       C  0.94308280  0.86931105  0.74931178    -0.00200
C3251       C  0.95385132  0.88513498  0.74723438    -0.13200
C3252       C  0.97260906  0.88410692  0.74131757     0.00300
C3253       C  0.94141815  0.83530446  0.74328867     0.39600
C3254       C  0.98303689  0.90076057  0.74036724     0.36200
C3255       C  0.99812729  0.85445410  0.67403245     0.35900
C3256       C  0.04143320  0.86965419  0.79000352     0.36700
N3257       N  0.93364774  0.82159250  0.74336691    -0.44100
N3258       N  0.99128549  0.91418300  0.73962740    -0.44600
N3259       N  0.04969054  0.87204005  0.81448594    -0.41900
N3260       N  0.98942123  0.85120525  0.65044187    -0.43400
H3261       H  0.03382590  0.85160498  0.67814940     0.12800
H3262       H  0.00583795  0.87349331  0.78481157     0.09300
H3263       H  0.97655567  0.83814529  0.73329831     0.10400
H3264       H  0.94781001  0.89835586  0.75183149     0.16200
C3265       C  0.10819572  0.97049481  0.75993188    -0.02000
C3266       C  0.12444735  0.97928387  0.76947672     0.06600
C3267       C  0.14018414  0.96900535  0.77442037    -0.08000
C3268       C  0.14020314  0.95025675  0.76865316     0.04000
C3269       C  0.12411358  0.94138840  0.75771521    -0.15200
C3270       C  0.10810441  0.95164412  0.75427759    -0.08600
C3271       C  0.12552640  0.99919901  0.77475854     0.04900
C3272       C  0.12747363  0.00576717  0.80774384    -0.09700
C3273       C  0.12983714  0.02435171  0.81396553    -0.00100
C3274       C  0.13015187  0.03680852  0.78672176    -0.00200
C3275       C  0.12793594  0.03018903  0.75360407    -0.13200
C3276       C  0.12591211  0.01148631  0.74744174     0.00300
C3277       C  0.13142044  0.03017110  0.84869015     0.39600
C3278       C  0.12508921  0.00502581  0.71298861     0.36200
C3279       C  0.09156122  0.98059979  0.75561192     0.35900
C3280       C  0.15696953  0.94058664  0.77456676     0.36700
N3281       N  0.13264896  0.03450548  0.87671683    -0.44100
N3282       N  0.12455090  0.99961658  0.68552608    -0.44600
N3283       N  0.17055715  0.93315834  0.77954772    -0.41900
N3284       N  0.07825465  0.98876072  0.75218625    -0.43400
H3285       H  0.09568638  0.94507429  0.74588135     0.12800
H3286       H  0.15260712  0.97575310  0.78235818     0.09300
H3287       H  0.12728893  0.99626671  0.82871621     0.10400
H3288       H  0.12830824  0.03957949  0.73248319     0.16200
C3289       C  0.26967026  0.87413346  0.21344889    -0.02000
C3290       C  0.26228813  0.85795375  0.19991657     0.06600
C3291       C  0.27343307  0.84250162  0.19733115    -0.08000
C3292       C  0.29191316  0.84330500  0.20631531     0.04000
C3293       C  0.29953977  0.85990867  0.21770224    -0.15200
C3294       C  0.28808590  0.87499422  0.22199389    -0.08600
C3295       C  0.24318136  0.85734864  0.18740497     0.04900
C3296       C  0.23791705  0.86950073  0.16179325    -0.09700
C3297       C  0.21960556  0.87141228  0.15277903    -0.00100
C3298       C  0.20629822  0.86050433  0.16848716    -0.00200
C3299       C  0.21166454  0.84745668  0.19234686    -0.13200
C3300       C  0.22990541  0.84597485  0.20225116     0.00300
C3301       C  0.21468186  0.88506035  0.12825013     0.39600
C3302       C  0.23438466  0.83384451  0.22965666     0.36200
C3303       C  0.25868969  0.89019946  0.21826899     0.35900
C3304       C  0.30288294  0.82722499  0.20172866     0.36700
N3305       N  0.21071570  0.89603791  0.10867161    -0.44100
N3306       N  0.23794374  0.82421528  0.25179014    -0.44600
N3307       N  0.31157593  0.81424960  0.19824528    -0.41900
N3308       N  0.24991976  0.90310046  0.22202041    -0.43400
H3309       H  0.29372046  0.88776300  0.23099882     0.12800
H3310       H  0.26783126  0.82996984  0.18721250     0.09300
H3311       H  0.24806503  0.87815047  0.14998075     0.10400
H3312       H  0.20139686  0.83931390  0.20504248     0.16200
C3313       C  0.97596600  0.88569568  0.25618322    -0.02000
C3314       C  0.98477707  0.86903368  0.24956734     0.06600
C3315       C  0.97435254  0.85305191  0.24763727    -0.08000
C3316       C  0.95554973  0.85332647  0.25312184     0.04000
C3317       C  0.94674974  0.86987741  0.26118537    -0.15200
C3318       C  0.95713390  0.88600533  0.26182685    -0.08600
C3319       C  0.00482513  0.86784814  0.24464707     0.04900
C3320       C  0.01658693  0.87350245  0.27063536    -0.09700
C3321       C  0.03554418  0.87233979  0.26687804    -0.00100
C3322       C  0.04300783  0.86499926  0.23690832    -0.00200
C3323       C  0.03114808  0.85906862  0.21126287    -0.13200
C3324       C  0.01230544  0.86065457  0.21467402     0.00300
C3325       C  0.04695484  0.87841793  0.29433342     0.39600
C3326       C  0.00095310  0.85557189  0.18641887     0.36200
C3327       C  0.98595507  0.90263364  0.25718009     0.35900
C3328       C  0.94569464  0.83638961  0.25010879     0.36700
N3329       N  0.05613725  0.88332587  0.31626550    -0.44100
N3330       N  0.99180944  0.85159267  0.16380212    -0.44600
N3331       N  0.93784105  0.82278843  0.24771465    -0.41900
N3332       N  0.99402034  0.91616896  0.25800199    -0.43400
H3333       H  0.95065888  0.89884553  0.26789860     0.12800
H3334       H  0.98101033  0.84021042  0.24226646     0.09300
H3335       H  0.01092136  0.87881754  0.29395541     0.10400
H3336       H  0.03662496  0.85373930  0.18779240     0.16200
C3337       C  0.14616089  0.97582687  0.23731054    -0.02000
C3338       C  0.13447974  0.98403308  0.26096766     0.06600
C3339       C  0.12194194  0.97323580  0.27870912    -0.08000
C3340       C  0.12059782  0.95447155  0.27255439     0.04000
C3341       C  0.13190457  0.94624716  0.24785763    -0.15200
C3342       C  0.14477184  0.95719070  0.23088841    -0.08600
C3343       C  0.13527792  0.00388597  0.26748500     0.04900
C3344       C  0.13017462  0.01597390  0.24177592    -0.09700
C3345       C  0.13130572  0.03484363  0.24652663    -0.00100
C3346       C  0.13739650  0.04189585  0.27781725    -0.00200
C3347       C  0.14265543  0.02965959  0.30334666    -0.13200
C3348       C  0.14172703  0.01084274  0.29836677     0.00300
C3349       C  0.12702373  0.04652513  0.21832745     0.39600
C3350       C  0.14808266  0.99893376  0.32482060     0.36200
C3351       C  0.15993974  0.98623437  0.21979829     0.35900
C3352       C  0.10790074  0.94410740  0.29272745     0.36700
N3353       N  0.12371355  0.05585126  0.19561174    -0.44100
N3354       N  0.15328123  0.98937986  0.34591196    -0.44600
N3355       N  0.09773143  0.93598094  0.30923867    -0.41900
N3356       N  0.17100640  0.99461488  0.20593585    -0.43400
H3357       H  0.15371588  0.95126592  0.21205958     0.12800
H3358       H  0.11315440  0.97953019  0.29739054     0.09300
H3359       H  0.12553381  0.01060611  0.21773354     0.10400
H3360       H  0.14747572  0.03478839  0.32744074     0.16200
C3361       C  0.13888400  0.86737536  0.97347661    -0.02000
C3362       C  0.12317374  0.85955908  0.95881081     0.06600
C3363       C  0.10997142  0.85173875  0.97995968    -0.08000
C3364       C  0.11169382  0.85258120  0.01518315     0.04000
C3365       C  0.12684895  0.86139254  0.02980197    -0.15200
C3366       C  0.14056903  0.86828960  0.00876932    -0.08600
C3367       C  0.12016388  0.85941184  0.92158155     0.04900
C3368       C  0.11909108  0.84268465  0.90461415    -0.09700
C3369       C  0.11670882  0.84193541  0.86947640    -0.00100
C3370       C  0.11528401  0.85822565  0.85054649    -0.00200
C3371       C  0.11546672  0.87492740  0.86787687    -0.13200
C3372       C  0.11785978  0.87563707  0.90300494     0.00300
C3373       C  0.11540558  0.82423131  0.85379963     0.39600
C3374       C  0.11774715  0.89318169  0.91944826     0.36200
C3375       C  0.15347382  0.87444695  0.95284090     0.35900
C3376       C  0.09790959  0.84403003  0.03587945     0.36700
N3377       N  0.11429679  0.80992401  0.84172290    -0.44100
N3378       N  0.11766915  0.90725902  0.93257747    -0.44600
N3379       N  0.08695440  0.83701956  0.05242197    -0.41900
N3380       N  0.16518560  0.88012261  0.93633441    -0.43400
H3381       H  0.15235660  0.87483571  0.01991108     0.12800
H3382       H  0.09811605  0.84526812  0.96890475     0.09300
H3383       H  0.12036061  0.83015136  0.91887135     0.10400
H3384       H  0.11432667  0.88753658  0.85382159     0.16200
C3385       C  0.10792286  0.87606984  0.40534422    -0.02000
C3386       C  0.12511684  0.87680715  0.42111489     0.06600
C3387       C  0.14081564  0.87722031  0.40109058    -0.08000
C3388       C  0.13965651  0.87623039  0.36581320     0.04000
C3389       C  0.12248414  0.87480022  0.34990139    -0.15200
C3390       C  0.10670616  0.87525728  0.36991901    -0.08600
C3391       C  0.12708929  0.87628151  0.45847190     0.04900
C3392       C  0.12904176  0.85937588  0.47445831    -0.09700
C3393       C  0.13029736  0.85813731  0.50976162    -0.00100
C3394       C  0.12967653  0.87409906  0.52974886    -0.00200
C3395       C  0.12816194  0.89105620  0.51350892    -0.13200
C3396       C  0.12694563  0.89224802  0.47819641     0.00300
C3397       C  0.13087404  0.84026276  0.52486790     0.39600
C3398       C  0.12524449  0.90994763  0.46276062     0.36200
C3399       C  0.09142776  0.87551014  0.42512787     0.35900
C3400       C  0.15632530  0.87696494  0.34648066     0.36700
N3401       N  0.13121611  0.82595618  0.53704751    -0.44100
N3402       N  0.12388553  0.92415631  0.45045206    -0.44600
N3403       N  0.16970443  0.87761605  0.33108179    -0.41900
N3404       N  0.07822492  0.87499595  0.44106048    -0.43400
H3405       H  0.09347826  0.87423370  0.35798603     0.12800
H3406       H  0.15403509  0.87801554  0.41312904     0.09300
H3407       H  0.12914229  0.84706893  0.45930002     0.10400
H3408       H  0.12762763  0.90340572  0.52851171     0.16200
C3409       C  0.23021474  0.63083999  0.94089098    -0.02000
C3410       C  0.24054797  0.64323031  0.96012327     0.06600
C3411       C  0.23186272  0.65320939  0.98583215    -0.08000
C3412       C  0.21320770  0.65089434  0.99268531     0.04000
C3413       C  0.20277205  0.63858572  0.97308443    -0.15200
C3414       C  0.21167379  0.62873975  0.94729150    -0.08600
C3415       C  0.26057085  0.64486942  0.95480191     0.04900
C3416       C  0.26731856  0.64970955  0.92272951    -0.09700
C3417       C  0.28593058  0.64837465  0.91509433    -0.00100
C3418       C  0.29815046  0.64196958  0.93980590    -0.00200
C3419       C  0.29148673  0.63831590  0.97252108    -0.13200
C3420       C  0.27296691  0.63978952  0.98020559     0.00300
C3421       C  0.29187680  0.65271690  0.88129715     0.39600
C3422       C  0.26694077  0.63510370  0.01387544     0.36200
C3423       C  0.23837782  0.61962985  0.91496382     0.35900
C3424       C  0.20555713  0.66073076  0.02085496     0.36700
N3425       N  0.29655259  0.65629976  0.85416805    -0.44100
N3426       N  0.26208144  0.63146924  0.04088273    -0.44600
N3427       N  0.19980016  0.66862389  0.04380700    -0.41900
N3428       N  0.24484818  0.61064501  0.89415140    -0.43400
H3429       H  0.20413913  0.61925964  0.93161244     0.12800
H3430       H  0.23977439  0.66263883  0.00097135     0.09300
H3431       H  0.25788359  0.65388163  0.90319431     0.10400
H3432       H  0.30077004  0.63386420  0.99210943     0.16200
C3433       C  0.97294135  0.64183984  0.86569168    -0.02000
C3434       C  0.98028953  0.63293961  0.89405116     0.06600
C3435       C  0.96852170  0.62376948  0.91635487    -0.08000
C3436       C  0.94964612  0.62331656  0.91053825     0.04000
C3437       C  0.94232968  0.63222721  0.88195758    -0.15200
C3438       C  0.95422032  0.64150890  0.86005034    -0.08600
C3439       C  0.00017656  0.63365271  0.90082623     0.04900
C3440       C  0.00829464  0.65063142  0.90671477    -0.09700
C3441       C  0.02715433  0.65238033  0.91018467    -0.00100
C3442       C  0.03842489  0.63675265  0.90830785    -0.00200
C3443       C  0.03016018  0.61970765  0.90268413    -0.13200
C3444       C  0.01126040  0.61806255  0.89895350     0.00300
C3445       C  0.03440300  0.67052883  0.91442572     0.39600
C3446       C  0.00362984  0.60030807  0.89230655     0.36200
C3447       C  0.98441986  0.65089142  0.84123227     0.35900
C3448       C  0.93812998  0.61429485  0.93492787     0.36700
N3449       N  0.04005077  0.68513584  0.91772751    -0.44100
N3450       N  0.99757737  0.58604594  0.88696300    -0.44600
N3451       N  0.92900419  0.60715653  0.95477940    -0.41900
N3452       N  0.99359894  0.65811951  0.82158907    -0.43400
H3453       H  0.94893806  0.64811916  0.83762846     0.12800
H3454       H  0.97408661  0.61711058  0.93847496     0.09300
H3455       H  0.99981391  0.66268083  0.90789362     0.10400
H3456       H  0.03844341  0.60753548  0.90152860     0.16200
C3457       C  0.12051280  0.72733667  0.07644386    -0.02000
C3458       C  0.10973108  0.74174262  0.06453819     0.06600
C3459       C  0.09915219  0.73930155  0.03549847    -0.08000
C3460       C  0.09926618  0.72271809  0.01799055     0.04000
C3461       C  0.11029173  0.70820599  0.02958235    -0.15200
C3462       C  0.12069323  0.71077202  0.05905947    -0.08600
C3463       C  0.11022816  0.75980974  0.08093277     0.04900
C3464       C  0.12020920  0.77373564  0.06542356    -0.09700
C3465       C  0.12188512  0.79080097  0.08074167    -0.00100
C3466       C  0.11344028  0.79408950  0.11234847    -0.00200
C3467       C  0.10303820  0.78020497  0.12735864    -0.13200
C3468       C  0.10143071  0.76313356  0.11196309     0.00300
C3469       C  0.13179657  0.80477975  0.06278033     0.39600
C3470       C  0.09072590  0.74923119  0.12841667     0.36200
C3471       C  0.13193919  0.72947944  0.10583907     0.35900
C3472       C  0.08857645  0.72144034  0.98750991     0.36700
N3473       N  0.13967876  0.81591608  0.04812910    -0.44100
N3474       N  0.08214065  0.73810791  0.14166877    -0.44600
N3475       N  0.07995268  0.72062322  0.96311660    -0.41900
N3476       N  0.14108918  0.73127877  0.12937468    -0.43400
H3477       H  0.12913574  0.69982857  0.06852304     0.12800
H3478       H  0.09099868  0.75051472  0.02621514     0.09300
H3479       H  0.12682949  0.77118395  0.04135601     0.10400
H3480       H  0.09641957  0.78257226  0.15148316     0.16200
C3481       C  0.22874420  0.64929787  0.43759801    -0.02000
C3482       C  0.24152033  0.63564206  0.44555023     0.06600
C3483       C  0.23639671  0.62164506  0.46784020    -0.08000
C3484       C  0.21859437  0.62039374  0.48023608     0.04000
C3485       C  0.20570791  0.63377640  0.47150967    -0.15200
C3486       C  0.21113882  0.64844319  0.45112996    -0.08600
C3487       C  0.26025497  0.63550569  0.43106905     0.04900
C3488       C  0.27173031  0.65055500  0.43623564    -0.09700
C3489       C  0.29010164  0.64994887  0.42675496    -0.00100
C3490       C  0.29740790  0.63381398  0.41287062    -0.00200
C3491       C  0.28572862  0.61918317  0.40599141    -0.13200
C3492       C  0.26724949  0.62003636  0.41426070     0.00300
C3493       C  0.30134241  0.66566099  0.43345901     0.39600
C3494       C  0.25580847  0.60480948  0.40522169     0.36200
C3495       C  0.23277064  0.66339232  0.41331774     0.35900
C3496       C  0.21379527  0.60504091  0.50121982     0.36700
N3497       N  0.31025349  0.67837018  0.43846715    -0.44100
N3498       N  0.24677053  0.59256796  0.39761781    -0.44600
N3499       N  0.21004717  0.59267482  0.51795103    -0.41900
N3500       N  0.23580527  0.67463437  0.39362864    -0.43400
H3501       H  0.20116826  0.65848716  0.44348671     0.12800
H3502       H  0.24622382  0.61132094  0.47476327     0.09300
H3503       H  0.26650969  0.66255117  0.44891460     0.10400
H3504       H  0.29119364  0.60682494  0.39495700     0.16200
C3505       C  0.01414238  0.61890536  0.39671243    -0.02000
C3506       C  0.00306638  0.63430882  0.40152159     0.06600
C3507       C  0.01114581  0.65082246  0.41101807    -0.08000
C3508       C  0.02998419  0.65224660  0.41558463     0.04000
C3509       C  0.04121776  0.63670746  0.41139476    -0.15200
C3510       C  0.03297264  0.62017496  0.40174190    -0.08600
C3511       C  0.98320328  0.63377699  0.39452965     0.04900
C3512       C  0.97169765  0.62285429  0.41441354    -0.09700
C3513       C  0.95299998  0.62161038  0.40747410    -0.00100
C3514       C  0.94556466  0.63142394  0.38004772    -0.00200
C3515       C  0.95715158  0.64262674  0.36075910    -0.13200
C3516       C  0.97572245  0.64386931  0.36772933     0.00300
C3517       C  0.94178751  0.61066334  0.42952043     0.39600
C3518       C  0.98695351  0.65516714  0.34628433     0.36200
C3519       C  0.00650693  0.60178977  0.38566340     0.35900
C3520       C  0.03727967  0.67005616  0.42311786     0.36700
N3521       N  0.93290122  0.60195381  0.44749102    -0.44100
N3522       N  0.99599312  0.66425573  0.32925479    -0.44600
N3523       N  0.04296036  0.68442034  0.42893052    -0.41900
N3524       N  0.00027144  0.58813705  0.37674669    -0.43400
H3525       H  0.04120890  0.60809371  0.39833704     0.12800
H3526       H  0.00267771  0.66277313  0.41424305     0.09300
H3527       H  0.97737053  0.61527847  0.43539226     0.10400
H3528       H  0.95179602  0.65013285  0.33940271     0.16200
C3529       C  0.13003865  0.61078686  0.66650405    -0.02000
C3530       C  0.12836119  0.62702396  0.68517753     0.06600
C3531       C  0.12951849  0.64378919  0.66833595    -0.08000
C3532       C  0.13157644  0.64455550  0.63311018     0.04000
C3533       C  0.13231831  0.62826707  0.61412123    -0.15200
C3534       C  0.13181035  0.61150911  0.63127812    -0.08600
C3535       C  0.12500208  0.62677342  0.72220295     0.04900
C3536       C  0.13882180  0.62076838  0.74377608    -0.09700
C3537       C  0.13640073  0.62097666  0.77884492    -0.00100
C3538       C  0.11990876  0.62732182  0.79286812    -0.00200
C3539       C  0.10579271  0.63265685  0.77131975    -0.13200
C3540       C  0.10822834  0.63240766  0.73612658     0.00300
C3541       C  0.15101286  0.61452239  0.80001694     0.39600
C3542       C  0.09333215  0.63780165  0.71468332     0.36200
C3543       C  0.12925904  0.59325433  0.68291181     0.35900
C3544       C  0.13169451  0.66218607  0.61701730     0.36700
N3545       N  0.16269421  0.60927082  0.81693675    -0.44100
N3546       N  0.08142223  0.64202104  0.69732273    -0.44600
N3547       N  0.13178113  0.67633555  0.60419776    -0.41900
N3548       N  0.12869137  0.57928195  0.69634316    -0.43400
H3549       H  0.13238267  0.59891248  0.61700183     0.12800
H3550       H  0.12841318  0.65630787  0.68273401     0.09300
H3551       H  0.15161494  0.61614065  0.73316487     0.10400
H3552       H  0.09310558  0.63752563  0.78198116     0.16200
C3553       C  0.12287472  0.61853133  0.24028192    -0.02000
C3554       C  0.12079139  0.63493164  0.22213110     0.06600
C3555       C  0.11577184  0.65075348  0.23958044    -0.08000
C3556       C  0.11358403  0.65065982  0.27470858     0.04000
C3557       C  0.11632721  0.63443363  0.29314012    -0.15200
C3558       C  0.12062260  0.61839623  0.27553967    -0.08600
C3559       C  0.12257866  0.63579774  0.18473052     0.04900
C3560       C  0.10708779  0.64006402  0.16583842    -0.09700
C3561       C  0.10777236  0.64074270  0.13059393    -0.00100
C3562       C  0.12424130  0.63708229  0.11344214    -0.00200
C3563       C  0.14000327  0.63363165  0.13231281    -0.13200
C3564       C  0.13928523  0.63296785  0.16779765     0.00300
C3565       C  0.09140096  0.64558312  0.11261914     0.39600
C3566       C  0.15581709  0.62951873  0.18629491     0.36200
C3567       C  0.12714400  0.60169257  0.22323745     0.35900
C3568       C  0.10814838  0.66735417  0.29109225     0.36700
N3569       N  0.07827783  0.64955583  0.09835162    -0.44100
N3570       N  0.16906250  0.62673586  0.20114659    -0.44600
N3571       N  0.10367586  0.68080150  0.30383819    -0.41900
N3572       N  0.13060319  0.58821878  0.20952056    -0.43400
H3573       H  0.12281074  0.60588582  0.28945670     0.12800
H3574       H  0.11367180  0.66328159  0.22565227     0.09300
H3575       H  0.09432512  0.64268488  0.17873755     0.10400
H3576       H  0.15272130  0.63093847  0.11934102     0.16200
C3577       C  0.10181506  0.77352143  0.56372069    -0.02000
C3578       C  0.11593586  0.76084422  0.56886751     0.06600
C3579       C  0.13023856  0.76524385  0.59069946    -0.08000
C3580       C  0.13046115  0.78179268  0.60807576     0.04000
C3581       C  0.11602111  0.79426624  0.60395036    -0.15200
C3582       C  0.10180361  0.78998814  0.58167485    -0.08600
C3583       C  0.11576623  0.74248587  0.55331626     0.04900
C3584       C  0.12939480  0.73785121  0.53002130    -0.09700
C3585       C  0.13048101  0.72019051  0.51683377    -0.00100
C3586       C  0.11763859  0.70689959  0.52678354    -0.00200
C3587       C  0.10396756  0.71157548  0.54996310    -0.13200
C3588       C  0.10313793  0.72912905  0.56368031     0.00300
C3589       C  0.14460491  0.71614935  0.49254744     0.39600
C3590       C  0.08983096  0.73292801  0.58960529     0.36200
C3591       C  0.08756052  0.77016040  0.53945734     0.35900
C3592       C  0.14533645  0.78527723  0.63100860     0.36700
N3593       N  0.15591219  0.71286429  0.47310584    -0.44100
N3594       N  0.07930489  0.73607432  0.61057476    -0.44600
N3595       N  0.15727359  0.78805476  0.64933325    -0.41900
N3596       N  0.07619671  0.76761507  0.51980724    -0.43400
H3597       H  0.09090323  0.79967571  0.57777986     0.12800
H3598       H  0.14109658  0.75551343  0.59469636     0.09300
H3599       H  0.13927742  0.74803232  0.52236969     0.10400
H3600       H  0.09421394  0.70135680  0.55799815     0.16200
C3601       C  0.12618903  0.23323520  0.84402532    -0.02000
C3602       C  0.14035085  0.23929723  0.82255022     0.06600
C3603       C  0.15462604  0.22735569  0.81487092    -0.08000
C3604       C  0.15425150  0.20925715  0.82598111     0.04000
C3605       C  0.13927814  0.20275997  0.84494296    -0.15200
C3606       C  0.12550739  0.21497770  0.85425233    -0.08600
C3607       C  0.14049246  0.25796811  0.80783652     0.04900
C3608       C  0.15537664  0.26944283  0.81417080    -0.09700
C3609       C  0.15513336  0.28770245  0.80405756    -0.00100
C3610       C  0.13962277  0.29482518  0.78774211    -0.00200
C3611       C  0.12533040  0.28303614  0.77918854    -0.13200
C3612       C  0.12587022  0.26462560  0.78828430     0.00300
C3613       C  0.17027486  0.29918778  0.81345940     0.39600
C3614       C  0.11125260  0.25286732  0.77737751     0.36200
C3615       C  0.11230225  0.24553246  0.85602963     0.35900
C3616       C  0.16864298  0.19726435  0.81507001     0.36700
N3617       N  0.18241154  0.30837395  0.82101129    -0.44100
N3618       N  0.09956680  0.24344023  0.76851639    -0.44600
N3619       N  0.18019587  0.18770506  0.80622274    -0.41900
N3620       N  0.10126921  0.25548514  0.86566106    -0.43400
H3621       H  0.11394864  0.21010806  0.86874296     0.12800
H3622       H  0.16574137  0.23198467  0.79897452     0.09300
H3623       H  0.16686246  0.26434473  0.82844531     0.10400
H3624       H  0.11345022  0.28837590  0.76640486     0.16200
C3625       C  0.11395253  0.48448475  0.87787561    -0.02000
C3626       C  0.12827140  0.49706326  0.87404887     0.06600
C3627       C  0.14534390  0.49086399  0.86337198    -0.08000
C3628       C  0.14831370  0.47242044  0.85611646     0.04000
C3629       C  0.13384814  0.45970796  0.85907281    -0.15200
C3630       C  0.11675991  0.46607843  0.87012310    -0.08600
C3631       C  0.12617413  0.51653879  0.88332806     0.04900
C3632       C  0.13365477  0.52253883  0.91382052    -0.09700
C3633       C  0.13265513  0.54083251  0.92342600    -0.00100
C3634       C  0.12399270  0.55369856  0.90212869    -0.00200
C3635       C  0.11620525  0.54753288  0.87171977    -0.13200
C3636       C  0.11735513  0.52914095  0.86213199     0.00300
C3637       C  0.14035351  0.54572201  0.95573630     0.39600
C3638       C  0.10998469  0.52355650  0.82997039     0.36200
C3639       C  0.09647827  0.49004917  0.89093381     0.35900
C3640       C  0.16660025  0.46696867  0.84755276     0.36700
N3641       N  0.14660694  0.54928192  0.98173336    -0.44100
N3642       N  0.10417050  0.51899787  0.80415036    -0.44600
N3643       N  0.18134732  0.46276421  0.84098467    -0.41900
N3644       N  0.08251531  0.49446132  0.90166329    -0.43400
H3645       H  0.10549249  0.45665754  0.87288344     0.12800
H3646       H  0.15650993  0.50047718  0.86130348     0.09300
H3647       H  0.14036293  0.51282174  0.93021176     0.10400
H3648       H  0.10968913  0.55716984  0.85493556     0.16200
C3649       C  0.15330784  0.22973106  0.33281480    -0.02000
C3650       C  0.13813014  0.24146416  0.33364966     0.06600
C3651       C  0.12173853  0.23512182  0.34771592    -0.08000
C3652       C  0.12003784  0.21712310  0.35902803     0.04000
C3653       C  0.13502943  0.20519599  0.35688980    -0.15200
C3654       C  0.15175479  0.21193084  0.34512079    -0.08600
C3655       C  0.13870863  0.26003098  0.31852635     0.04900
C3656       C  0.12641422  0.26441225  0.29256719    -0.09700
C3657       C  0.12541926  0.28216312  0.27964759    -0.00100
C3658       C  0.13729178  0.29568929  0.29187137    -0.00200
C3659       C  0.15019961  0.29108407  0.31651166    -0.13200
C3660       C  0.15070785  0.27359863  0.33046669     0.00300
C3661       C  0.11181085  0.28638253  0.25465052     0.39600
C3662       C  0.16251818  0.27042497  0.35897802     0.36200
C3663       C  0.17005654  0.23497963  0.31638139     0.35900
C3664       C  0.10262606  0.21096497  0.37160903     0.36700
N3665       N  0.10089808  0.28982508  0.23463382    -0.44100
N3666       N  0.17192749  0.26794199  0.38191975    -0.44600
N3667       N  0.08870521  0.20596265  0.38170371    -0.41900
N3668       N  0.18344837  0.23914627  0.30304616    -0.43400
H3669       H  0.16318470  0.20273368  0.34233935     0.12800
H3670       H  0.11005442  0.24408762  0.34876073     0.09300
H3671       H  0.11716218  0.25407259  0.28318121     0.10400
H3672       H  0.15890335  0.30161078  0.32698342     0.16200
C3673       C  0.11532398  0.48560094  0.36535695    -0.02000
C3674       C  0.13052845  0.49669828  0.37280871     0.06600
C3675       C  0.14780349  0.48862665  0.37472312    -0.08000
C3676       C  0.15023947  0.47010490  0.36795215     0.04000
C3677       C  0.13502905  0.45903926  0.36057182    -0.15200
C3678       C  0.11767090  0.46694975  0.35981982    -0.08600
C3679       C  0.12876292  0.51662208  0.37914798     0.04900
C3680       C  0.11619850  0.52279770  0.40339681    -0.09700
C3681       C  0.11447394  0.54135105  0.41071262    -0.00100
C3682       C  0.12588459  0.55404132  0.39442421    -0.00200
C3683       C  0.13852337  0.54797134  0.37044723    -0.13200
C3684       C  0.13986915  0.52950589  0.36229268     0.00300
C3685       C  0.10154735  0.54690676  0.43619482     0.39600
C3686       C  0.15267998  0.52424299  0.33637217     0.36200
C3687       C  0.09723251  0.49301119  0.36222066     0.35900
C3688       C  0.16845706  0.46286005  0.36937576     0.36700
N3689       N  0.09113515  0.55126162  0.45660002    -0.44100
N3690       N  0.16304108  0.52006960  0.31573848    -0.44600
N3691       N  0.18313379  0.45724150  0.37037128    -0.41900
N3692       N  0.08270118  0.49888279  0.35986888    -0.43400
H3693       H  0.10590981  0.45860470  0.35388326     0.12800
H3694       H  0.15950528  0.49686486  0.38145443     0.09300
H3695       H  0.10793689  0.51306312  0.41717782     0.10400
H3696       H  0.14738010  0.55773559  0.35803498     0.16200
C3697       C  0.13708304  0.35989495  0.52738855    -0.02000
C3698       C  0.13357613  0.37472475  0.54896418     0.06600
C3699       C  0.13081018  0.39208154  0.53489601    -0.08000
C3700       C  0.13158783  0.39476745  0.49977339     0.04000
C3701       C  0.13529029  0.37988547  0.47828283    -0.15200
C3702       C  0.13794973  0.36258661  0.49253646    -0.08600
C3703       C  0.13293297  0.37234788  0.58621914     0.04900
C3704       C  0.14853038  0.36635564  0.60324878    -0.09700
C3705       C  0.14858334  0.36424674  0.63844455    -0.00100
C3706       C  0.13284947  0.36864927  0.65742948    -0.00200
C3707       C  0.11706836  0.37405672  0.63998246    -0.13200
C3708       C  0.11696620  0.37577264  0.60478864     0.00300
C3709       C  0.16514676  0.35803305  0.65410629     0.39600
C3710       C  0.10021481  0.38065809  0.58815114     0.36200
C3711       C  0.13945097  0.34167390  0.54026529     0.35900
C3712       C  0.12937843  0.41294454  0.48662332     0.36700
N3713       N  0.17843860  0.35286009  0.66634477    -0.44100
N3714       N  0.08680609  0.38445278  0.57464787    -0.44600
N3715       N  0.12768495  0.42752557  0.47607438    -0.41900
N3716       N  0.14138236  0.32704081  0.55039457    -0.43400
H3717       H  0.14053239  0.35098339  0.47625392     0.12800
H3718       H  0.12826020  0.40357167  0.55145034     0.09300
H3719       H  0.16079520  0.36349140  0.58894094     0.10400
H3720       H  0.10472445  0.37711320  0.65390217     0.16200
C3721       C  0.13138757  0.35755823  0.10388152    -0.02000
C3722       C  0.13346469  0.37428068  0.08679038     0.06600
C3723       C  0.13569181  0.39032384  0.10533529    -0.08000
C3724       C  0.13565037  0.39001127  0.14058559     0.04000
C3725       C  0.13302736  0.37338030  0.15790327    -0.15200
C3726       C  0.13117573  0.35721082  0.13933216    -0.08600
C3727       C  0.13417884  0.37547427  0.04952348     0.04900
C3728       C  0.11878541  0.38136121  0.03185665    -0.09700
C3729       C  0.11922389  0.38347011  0.99663414    -0.00100
C3730       C  0.13547804  0.37986785  0.97855755    -0.00200
C3731       C  0.15093438  0.37418844  0.99674557    -0.13200
C3732       C  0.15037327  0.37195410  0.03182079     0.00300
C3733       C  0.10257935  0.38855023  0.97986363     0.39600
C3734       C  0.16659649  0.36619089  0.04930611     0.36200
C3735       C  0.12938570  0.34069282  0.08554509     0.35900
C3736       C  0.13922625  0.40683660  0.15834986     0.36700
N3737       N  0.08914806  0.39253751  0.96662869    -0.44100
N3738       N  0.17951300  0.36155294  0.06353628    -0.44600
N3739       N  0.14224567  0.42029184  0.17251119    -0.41900
N3740       N  0.12782126  0.32715256  0.07087044    -0.43400
H3741       H  0.12927816  0.34440124  0.15247802     0.12800
H3742       H  0.13776279  0.40310170  0.09214526     0.09300
H3743       H  0.10634734  0.38418217  0.04566639     0.10400
H3744       H  0.16356940  0.37143015  0.98353864     0.16200
C3745       C  0.34884029  0.27102907  0.57094029    -0.02000
C3746       C  0.36290316  0.25870454  0.57893632     0.06600
C3747       C  0.37747000  0.26477546  0.59900651    -0.08000
C3748       C  0.37867436  0.28296984  0.60949787     0.04000
C3749       C  0.36504107  0.29544711  0.60026141    -0.15200
C3750       C  0.34989221  0.28914456  0.58204714    -0.08600
C3751       C  0.36347660  0.23984524  0.56489488     0.04900
C3752       C  0.37857559  0.23466885  0.54531717    -0.09700
C3753       C  0.38067454  0.21669173  0.53410845    -0.00100
C3754       C  0.36711283  0.20362358  0.54119521    -0.00200
C3755       C  0.35162212  0.20897281  0.55951441    -0.13200
C3756       C  0.34990037  0.22676536  0.57201774     0.00300
C3757       C  0.39721306  0.21183735  0.51661884     0.39600
C3758       C  0.33487368  0.23083728  0.59430632     0.36200
C3759       C  0.33401162  0.26583854  0.54904949     0.35900
C3760       C  0.39418011  0.28866406  0.62919072     0.36700
N3761       N  0.41057987  0.20803815  0.50286741    -0.44100
N3762       N  0.32286276  0.23413095  0.61222165    -0.44600
N3763       N  0.40654467  0.29321910  0.64517361    -0.41900
N3764       N  0.32214619  0.26157665  0.53154957    -0.43400
H3765       H  0.33959373  0.29875572  0.57401013     0.12800
H3766       H  0.38824267  0.25537576  0.60559784     0.09300
H3767       H  0.38911085  0.24459367  0.53981120     0.10400
H3768       H  0.34151540  0.19884566  0.56639752     0.16200
C3769       C  0.50959983  0.35898005  0.44964416    -0.02000
C3770       C  0.50096279  0.36674326  0.47789240     0.06600
C3771       C  0.51152303  0.37301744  0.50502442    -0.08000
C3772       C  0.53054183  0.37175183  0.50430277     0.04000
C3773       C  0.53934502  0.36450908  0.47552186    -0.15200
C3774       C  0.52856966  0.35811060  0.44850618    -0.08600
C3775       C  0.48089899  0.36727977  0.48088861     0.04900
C3776       C  0.47142740  0.35087683  0.48488017    -0.09700
C3777       C  0.45279116  0.35073614  0.49201091    -0.00100
C3778       C  0.44324472  0.36738914  0.49536695    -0.00200
C3779       C  0.45268088  0.38377979  0.48914695    -0.13200
C3780       C  0.47133285  0.38382825  0.48207946     0.00300
C3781       C  0.44409053  0.33324882  0.49619199     0.39600
C3782       C  0.48044769  0.40100416  0.47654796     0.36200
C3783       C  0.49929168  0.35184260  0.42152502     0.35900
C3784       C  0.54041087  0.37679061  0.53433245     0.36700
N3785       N  0.43729109  0.31915003  0.49958657    -0.44100
N3786       N  0.48777254  0.41474642  0.47203281    -0.44600
N3787       N  0.54800467  0.38059174  0.55892915    -0.41900
N3788       N  0.49104800  0.34598565  0.39910850    -0.43400
H3789       H  0.53495929  0.35251736  0.42608033     0.12800
H3790       H  0.50481130  0.37844243  0.52728844     0.09300
H3791       H  0.47878986  0.33811763  0.48354131     0.10400
H3792       H  0.44570005  0.39671417  0.49117403     0.16200
C3793       C  0.35958806  0.48752682  0.50631323    -0.02000
C3794       C  0.37529477  0.49719971  0.51638201     0.06600
C3795       C  0.38972323  0.48765376  0.53127962    -0.08000
C3796       C  0.38853906  0.46884029  0.53678016     0.04000
C3797       C  0.37252573  0.45934875  0.52786158    -0.15200
C3798       C  0.35822437  0.46882667  0.51256038    -0.08600
C3799       C  0.37653667  0.51732972  0.51269285     0.04900
C3800       C  0.36333749  0.52824915  0.52842446    -0.09700
C3801       C  0.36319201  0.54713104  0.52378577    -0.00100
C3802       C  0.37676298  0.55548429  0.50385295    -0.00200
C3803       C  0.39050871  0.54470166  0.48953451    -0.13200
C3804       C  0.39034303  0.52573739  0.49334341     0.00300
C3805       C  0.34900434  0.55764494  0.53976007     0.39600
C3806       C  0.40369415  0.51514163  0.47521868     0.36200
C3807       C  0.34491846  0.49641752  0.48867152     0.35900
C3808       C  0.40355101  0.45981311  0.55314159     0.36700
N3809       N  0.33762703  0.56606700  0.55254632    -0.44100
N3810       N  0.41431799  0.50666382  0.46046157    -0.44600
N3811       N  0.41563894  0.45273257  0.56636769    -0.41900
N3812       N  0.33324294  0.50358373  0.47437459    -0.43400
H3813       H  0.34602276  0.46153618  0.50512906     0.12800
H3814       H  0.40179640  0.49499076  0.53922812     0.09300
H3815       H  0.35286965  0.52192535  0.54381878     0.10400
H3816       H  0.40081698  0.55100532  0.47373710     0.16200
C3817       C  0.27572399  0.37535332  0.69346517    -0.02000
C3818       C  0.26170023  0.38750283  0.68482888     0.06600
C3819       C  0.26454216  0.39977290  0.65814817    -0.08000
C3820       C  0.28096155  0.39989451  0.63975901     0.04000
C3821       C  0.29512266  0.38767590  0.64833445    -0.15200
C3822       C  0.29217167  0.37560380  0.67553101    -0.08600
C3823       C  0.24382112  0.38717293  0.70275257     0.04900
C3824       C  0.23960761  0.40090178  0.72614807    -0.09700
C3825       C  0.22309194  0.40071622  0.74421505    -0.00100
C3826       C  0.21019813  0.38662469  0.73868452    -0.00200
C3827       C  0.21467505  0.37286807  0.71519034    -0.13200
C3828       C  0.23116687  0.37305585  0.69737212     0.00300
C3829       C  0.22018205  0.41481487  0.76903865     0.39600
C3830       C  0.23475432  0.35864875  0.67342460     0.36200
C3831       C  0.27350997  0.36238104  0.72056953     0.35900
C3832       C  0.28246980  0.41215632  0.61142727     0.36700
N3833       N  0.21792599  0.42609977  0.78902219    -0.44100
N3834       N  0.23762602  0.34708476  0.65428310    -0.44600
N3835       N  0.28359342  0.42195803  0.58864133    -0.41900
N3836       N  0.27173356  0.35189553  0.74213339    -0.43400
H3837       H  0.30276016  0.36617488  0.68292680     0.12800
H3838       H  0.25371069  0.40902274  0.65117874     0.09300
H3839       H  0.24941880  0.41166532  0.73070840     0.10400
H3840       H  0.20523545  0.36183239  0.71047187     0.16200
C3841       C  0.34390138  0.22678793  0.05725920    -0.02000
C3842       C  0.35868907  0.23904903  0.05433320     0.06600
C3843       C  0.37484690  0.23292302  0.03912923    -0.08000
C3844       C  0.37683886  0.21479406  0.02883243     0.04000
C3845       C  0.36234510  0.20236523  0.03307614    -0.15200
C3846       C  0.34575736  0.20873978  0.04611288    -0.08600
C3847       C  0.35829109  0.25796396  0.06835346     0.04900
C3848       C  0.37197208  0.26328157  0.09123919    -0.09700
C3849       C  0.37371478  0.28144965  0.10176898    -0.00100
C3850       C  0.36130208  0.29460173  0.09024231    -0.00200
C3851       C  0.34706626  0.28916289  0.06886317    -0.13200
C3852       C  0.34567144  0.27115367  0.05732728     0.00300
C3853       C  0.38855115  0.28643621  0.12376738     0.39600
C3854       C  0.33222541  0.26704523  0.03188160     0.36200
C3855       C  0.32720712  0.23182845  0.07403352     0.35900
C3856       C  0.39409249  0.20915118  0.01487258     0.36700
N3857       N  0.40039301  0.29051319  0.14146709    -0.44100
N3858       N  0.32143458  0.26382121  0.01146878    -0.44600
N3859       N  0.40793965  0.20467028  0.00372818    -0.41900
N3860       N  0.31373323  0.23571732  0.08733195    -0.43400
H3861       H  0.33468726  0.19921305  0.05030457     0.12800
H3862       H  0.38620637  0.24224413  0.03629048     0.09300
H3863       H  0.38175259  0.25330961  0.09992767     0.10400
H3864       H  0.33785080  0.29935131  0.05894782     0.16200
C3865       C  0.47009222  0.38587539  0.98365969    -0.02000
C3866       C  0.48017976  0.36962177  0.98356987     0.06600
C3867       C  0.47101288  0.35304622  0.98794655    -0.08000
C3868       C  0.45218829  0.35249213  0.99401750     0.04000
C3869       C  0.44206670  0.36889851  0.99623989    -0.15200
C3870       C  0.45128878  0.38543121  0.98993560    -0.08600
C3871       C  0.50033996  0.36958736  0.97938106     0.04900
C3872       C  0.51144901  0.37433081  0.00688576    -0.09700
C3873       C  0.53052674  0.37351446  0.00444179    -0.00100
C3874       C  0.53883504  0.36809128  0.97377325    -0.00200
C3875       C  0.52757976  0.36355459  0.94621756    -0.13200
C3876       C  0.50856994  0.36419505  0.94883235     0.00300
C3877       C  0.54112074  0.37710869  0.03438587     0.39600
C3878       C  0.49773755  0.35929724  0.91980750     0.36200
C3879       C  0.47882569  0.40316341  0.97741067     0.35900
C3880       C  0.44378289  0.33481960  0.99752991     0.36700
N3881       N  0.54951191  0.37977988  0.05861071    -0.44100
N3882       N  0.48902472  0.35534718  0.89659513    -0.44600
N3883       N  0.43715106  0.32059422  0.00018918    -0.41900
N3884       N  0.48589799  0.41696782  0.97223131    -0.43400
H3885       H  0.44395813  0.39819837  0.99094702     0.12800
H3886       H  0.47868494  0.34046317  0.98707018     0.09300
H3887       H  0.50516132  0.37824196  0.03061521     0.10400
H3888       H  0.53366183  0.35952508  0.92237000     0.16200
C3889       C  0.36023752  0.52892556  0.01451011    -0.02000
C3890       C  0.37582583  0.51783263  0.01440680     0.06600
C3891       C  0.39264909  0.52545258  0.00528185    -0.08000
C3892       C  0.39412576  0.54392115  0.99654178     0.04000
C3893       C  0.37856307  0.55524710  0.99778622    -0.15200
C3894       C  0.36175791  0.54741648  0.00683773    -0.08600
C3895       C  0.37449064  0.49800805  0.02134915     0.04900
C3896       C  0.37761827  0.48574626  0.99481177    -0.09700
C3897       C  0.37509299  0.46700956  0.99935481    -0.00100
C3898       C  0.36954808  0.46020863  0.03119347    -0.00200
C3899       C  0.36659057  0.47252511  0.05783677    -0.13200
C3900       C  0.36909822  0.49126350  0.05322165     0.00300
C3901       C  0.37725587  0.45520499  0.97041963     0.39600
C3902       C  0.36623159  0.50329527  0.08160944     0.36200
C3903       C  0.34235249  0.52146138  0.02068411     0.35900
C3904       C  0.41139774  0.55033897  0.98383672     0.36700
N3905       N  0.37885257  0.44569294  0.94727789    -0.44100
N3906       N  0.36388831  0.51292775  0.10435384    -0.44600
N3907       N  0.42524680  0.55518098  0.97315441    -0.41900
N3908       N  0.32800335  0.51547918  0.02541357    -0.43400
H3909       H  0.34958013  0.55571092  0.00739939     0.12800
H3910       H  0.40457083  0.51680644  0.00412731     0.09300
H3911       H  0.38151410  0.49090479  0.97015396     0.10400
H3912       H  0.36252956  0.46748102  0.08248370     0.16200
C3913       C  0.38339880  0.38191494  0.85677799    -0.02000
C3914       C  0.36776368  0.38020580  0.83643402     0.06600
C3915       C  0.35054160  0.38156546  0.85135339    -0.08000
C3916       C  0.34868716  0.38417976  0.88625639     0.04000
C3917       C  0.36434611  0.38530497  0.90696236    -0.15200
C3918       C  0.38159360  0.38452804  0.89168715    -0.08600
C3919       C  0.36907518  0.37806524  0.79924933     0.04900
C3920       C  0.36433095  0.36142185  0.78407173    -0.09700
C3921       C  0.36521318  0.35921729  0.74880325    -0.00100
C3922       C  0.37096371  0.37389941  0.72827748    -0.00200
C3923       C  0.37563627  0.39049681  0.74384583    -0.13200
C3924       C  0.37463503  0.39269443  0.77880091     0.00300
C3925       C  0.36054997  0.34174082  0.73448395     0.39600
C3926       C  0.37884109  0.41031102  0.79303637     0.36200
C3927       C  0.40141659  0.38052067  0.84246734     0.35900
C3928       C  0.33056296  0.38610976  0.89988441     0.36700
N3929       N  0.35683329  0.32778702  0.72275623    -0.44100
N3930       N  0.38218057  0.42444769  0.80436790    -0.44600
N3931       N  0.31597762  0.38771587  0.91048682    -0.41900
N3932       N  0.41585187  0.37941125  0.83096718    -0.43400
H3933       H  0.39372031  0.38521954  0.90720406     0.12800
H3934       H  0.33851403  0.38074052  0.83558406     0.09300
H3935       H  0.35998900  0.35014987  0.79983419     0.10400
H3936       H  0.37970773  0.40206664  0.72857834     0.16200
C3937       C  0.38481642  0.37267699  0.28002831    -0.02000
C3938       C  0.36837678  0.37269391  0.29835992     0.06600
C3939       C  0.35187847  0.37053943  0.28090216    -0.08000
C3940       C  0.35156652  0.36871330  0.24559501     0.04000
C3941       C  0.36805807  0.36895124  0.22718621    -0.15200
C3942       C  0.38453411  0.37081720  0.24484885    -0.08600
C3943       C  0.36809159  0.37486994  0.33574019     0.04900
C3944       C  0.37408680  0.39124667  0.35040750    -0.09700
C3945       C  0.37364873  0.39379986  0.38561770    -0.00100
C3946       C  0.36679549  0.37983159  0.40675318    -0.00200
C3947       C  0.36108355  0.36339791  0.39178916    -0.13200
C3948       C  0.36180392  0.36079121  0.35684049     0.00300
C3949       C  0.37987017  0.41099533  0.39902386     0.39600
C3950       C  0.35656126  0.34329474  0.34332178     0.36200
C3951       C  0.40215944  0.37446578  0.29675227     0.35900
C3952       C  0.33414768  0.36777653  0.22883881     0.36700
N3953       N  0.38493118  0.42481771  0.40948756    -0.44100
N3954       N  0.35243248  0.32922943  0.33259310    -0.44600
N3955       N  0.32020000  0.36707811  0.21538363    -0.41900
N3956       N  0.41607459  0.37593213  0.31009820    -0.43400
H3957       H  0.39728148  0.37108789  0.23100331     0.12800
H3958       H  0.33918177  0.37066811  0.29489810     0.09300
H3959       H  0.37900546  0.40210942  0.33423194     0.10400
H3960       H  0.35629556  0.35230059  0.40754810     0.16200
C3961       C  0.26365276  0.37274288  0.16160412    -0.02000
C3962       C  0.25937769  0.38712542  0.18391987     0.06600
C3963       C  0.27187039  0.40148565  0.18755977    -0.08000
C3964       C  0.28842075  0.40160597  0.16971933     0.04000
C3965       C  0.29285976  0.38702900  0.14783961    -0.15200
C3966       C  0.28028782  0.37271517  0.14414559    -0.08600
C3967       C  0.24212889  0.38718178  0.20406411     0.04900
C3968       C  0.23881909  0.37305215  0.22721115    -0.09700
C3969       C  0.22252398  0.37222502  0.24570671    -0.00100
C3970       C  0.20909010  0.38570782  0.24122691    -0.00200
C3971       C  0.21264559  0.40018646  0.21896300    -0.13200
C3972       C  0.22895128  0.40099793  0.20042018     0.00300
C3973       C  0.22019845  0.35783067  0.27016122     0.39600
C3974       C  0.23162237  0.41579780  0.17695344     0.36200
C3975       C  0.25095624  0.35808817  0.15553130     0.35900
C3976       C  0.30095592  0.41636563  0.17588187     0.36700
N3977       N  0.21835546  0.34641343  0.29000707    -0.44100
N3978       N  0.23389343  0.42764279  0.15815096    -0.44600
N3979       N  0.31089122  0.42825279  0.18121196    -0.41900
N3980       N  0.24071980  0.34640258  0.15060989    -0.43400
H3981       H  0.28341593  0.36149328  0.12729606     0.12800
H3982       H  0.26880298  0.41251038  0.20488499     0.09300
H3983       H  0.24904200  0.36262566  0.23085024     0.10400
H3984       H  0.20243791  0.41063281  0.21534505     0.16200
C3985       C  0.77658776  0.15762589  0.69454377    -0.02000
C3986       C  0.76373180  0.14364547  0.68895280     0.06600
C3987       C  0.76887795  0.12831572  0.67000172    -0.08000
C3988       C  0.78681927  0.12603082  0.65914464     0.04000
C3989       C  0.79990117  0.13951139  0.66638376    -0.15200
C3990       C  0.79449598  0.15549772  0.68302674    -0.08600
C3991       C  0.74487285  0.14437947  0.70254609     0.04900
C3992       C  0.73335757  0.15863478  0.69284572    -0.09700
C3993       C  0.71476486  0.15812512  0.70058114    -0.00100
C3994       C  0.70737781  0.14285168  0.71739849    -0.00200
C3995       C  0.71905672  0.12919145  0.72897307    -0.13200
C3996       C  0.73772723  0.13002928  0.72233145     0.00300
C3997       C  0.70345651  0.17286292  0.68897013     0.39600
C3998       C  0.74924492  0.11583073  0.73553670     0.36200
C3999       C  0.77210617  0.17371824  0.71375209     0.35900
C4000       C  0.79155690  0.10955703  0.64129927     0.36700
N4001       N  0.69463037  0.18487884  0.67974787    -0.44100
N4002       N  0.75850356  0.10449633  0.74618100    -0.44600
N4003       N  0.79523481  0.09632485  0.62698209    -0.41900
N4004       N  0.76859369  0.18668127  0.72903568    -0.43400
H4005       H  0.80458368  0.16577147  0.68919101     0.12800
H4006       H  0.75892493  0.11779510  0.66459010     0.09300
H4007       H  0.73872044  0.16975208  0.67779639     0.10400
H4008       H  0.71347581  0.11755216  0.74231168     0.16200
C4009       C  0.87678718  0.98913400  0.75636834    -0.02000
C4010       C  0.87505159  0.00167499  0.78316765     0.06600
C4011       C  0.87337147  0.99520880  0.81629524    -0.08000
C4012       C  0.87310521  0.97647499  0.82298619     0.04000
C4013       C  0.87412822  0.96380104  0.79601029    -0.15200
C4014       C  0.87627914  0.97039019  0.76291300    -0.08600
C4015       C  0.87532880  0.02160253  0.77707358     0.04900
C4016       C  0.85890772  0.03123264  0.77678272    -0.09700
C4017       C  0.85852430  0.04980737  0.76865059    -0.00100
C4018       C  0.87492085  0.05909795  0.76069430    -0.00200
C4019       C  0.89141865  0.04949091  0.76275818    -0.13200
C4020       C  0.89170138  0.03092173  0.77059099     0.00300
C4021       C  0.84111874  0.05887463  0.76901537     0.39600
C4022       C  0.90890639  0.02152235  0.77088218     0.36200
C4023       C  0.87899202  0.99523914  0.72193625     0.35900
C4024       C  0.87269079  0.97074085  0.85787518     0.36700
N4025       N  0.82710682  0.06600926  0.76940718    -0.44100
N4026       N  0.92265153  0.01389430  0.77094611    -0.44600
N4027       N  0.87257226  0.96637218  0.88596709    -0.41900
N4028       N  0.88087108  0.00017369  0.69438450    -0.43400
H4029       H  0.87718820  0.96088257  0.74199942     0.12800
H4030       H  0.87250748  0.00485051  0.83701371     0.09300
H4031       H  0.84630882  0.02410346  0.78224953     0.10400
H4032       H  0.90413889  0.05628497  0.75687227     0.16200
C4033       C  0.03033514  0.11476907  0.74414033    -0.02000
C4034       C  0.02217641  0.13177922  0.73803562     0.06600
C4035       C  0.03316564  0.14734610  0.73567344    -0.08000
C4036       C  0.05194855  0.14633250  0.74082287     0.04000
C4037       C  0.06004457  0.12945553  0.74909556    -0.15200
C4038       C  0.04909336  0.11372522  0.74957876    -0.08600
C4039       C  0.00217417  0.13369574  0.73476427     0.04900
C4040       C  0.99094176  0.12883356  0.76208655    -0.09700
C4041       C  0.97197744  0.13034253  0.75990893    -0.00100
C4042       C  0.96397506  0.13701001  0.72996572    -0.00200
C4043       C  0.97536355  0.14224196  0.70298009    -0.13200
C4044       C  0.99423584  0.14054772  0.70506111     0.00300
C4045       C  0.96119942  0.12547568  0.78906219     0.39600
C4046       C  0.00511244  0.14523165  0.67587554     0.36200
C4047       C  0.01970941  0.09822358  0.74507040     0.35900
C4048       C  0.06248253  0.16284659  0.73745337     0.36700
N4049       N  0.95264064  0.12161496  0.81256928    -0.44100
N4050       N  0.01384798  0.14894838  0.65251030    -0.44600
N4051       N  0.07090691  0.17608606  0.73472658    -0.41900
N4052       N  0.01115274  0.08499312  0.74578320    -0.43400
H4053       H  0.05502587  0.10063253  0.75561718     0.12800
H4054       H  0.02696785  0.16042493  0.73046352     0.09300
H4055       H  0.99704866  0.12387221  0.78523633     0.10400
H4056       H  0.96949037  0.14717496  0.67960074     0.16200
C4057       C  0.76837920  0.12520530  0.16487016    -0.02000
C4058       C  0.76137064  0.14089704  0.18098467     0.06600
C4059       C  0.77318692  0.15554364  0.18738769    -0.08000
C4060       C  0.79177833  0.15439274  0.17956487     0.04000
C4061       C  0.79899304  0.13805225  0.16630805    -0.15200
C4062       C  0.78706112  0.12375981  0.15840861    -0.08600
C4063       C  0.74212392  0.14163079  0.19318402     0.04900
C4064       C  0.73576261  0.12768472  0.21448711    -0.09700
C4065       C  0.71743676  0.12668085  0.22398673    -0.00100
C4066       C  0.70510617  0.14000984  0.21275317    -0.00200
C4067       C  0.71165741  0.15474089  0.19369755    -0.13200
C4068       C  0.72998156  0.15561971  0.18371271     0.00300
C4069       C  0.71151823  0.11174720  0.24502639     0.39600
C4070       C  0.73563293  0.17034745  0.16196413     0.36200
C4071       C  0.75666868  0.11038976  0.15467202     0.35900
C4072       C  0.80324517  0.16983602  0.18709880     0.36700
N4073       N  0.70680412  0.09983699  0.26205718    -0.44100
N4074       N  0.74011981  0.18220269  0.14459439    -0.44600
N4075       N  0.81229163  0.18235764  0.19288179    -0.41900
N4076       N  0.74727183  0.09855625  0.14636568    -0.43400
H4077       H  0.79242079  0.11128435  0.14766116     0.12800
H4078       H  0.76800695  0.16769620  0.19958754     0.09300
H4079       H  0.74507990  0.11722821  0.22297233     0.10400
H4080       H  0.70219333  0.16493110  0.18465499     0.16200
C4081       C  0.88865635  0.98500331  0.26719733    -0.02000
C4082       C  0.87353198  0.99669161  0.26782506     0.06600
C4083       C  0.85626685  0.98948172  0.27484308    -0.08000
C4084       C  0.85394186  0.97091057  0.28196097     0.04000
C4085       C  0.86916785  0.95910041  0.28190047    -0.15200
C4086       C  0.88640319  0.96644858  0.27418207    -0.08600
C4087       C  0.87533921  0.01633347  0.25962192     0.04900
C4088       C  0.86921971  0.02239877  0.22814729    -0.09700
C4089       C  0.87076400  0.04071296  0.21897468    -0.00100
C4090       C  0.87808099  0.05353615  0.24198114    -0.00200
C4091       C  0.88476318  0.04732644  0.27317803    -0.13200
C4092       C  0.88341835  0.02886498  0.28212563     0.00300
C4093       C  0.86568355  0.04574691  0.18501844     0.39600
C4094       C  0.89002901  0.02305079  0.31470158     0.36200
C4095       C  0.90655376  0.99175452  0.25876234     0.35900
C4096       C  0.83570755  0.96439910  0.28823762     0.36700
N4097       N  0.86182833  0.04963069  0.15762526    -0.44100
N4098       N  0.89530376  0.01819220  0.34070407    -0.44600
N4099       N  0.82105152  0.95929080  0.29325712    -0.41900
N4100       N  0.92083626  0.99729423  0.25192895    -0.43400
H4101       H  0.89826910  0.95772552  0.27394732     0.12800
H4102       H  0.84455360  0.99842835  0.27470870     0.09300
H4103       H  0.86349054  0.01268701  0.21042923     0.10400
H4104       H  0.89062995  0.05693445  0.29086739     0.16200
C4105       C  0.03132976  0.11514956  0.24478547    -0.02000
C4106       C  0.02224833  0.13170654  0.23885810     0.06600
C4107       C  0.03247389  0.14779976  0.23657013    -0.08000
C4108       C  0.05134515  0.14773685  0.24169942     0.04000
C4109       C  0.06036517  0.13128521  0.24978963    -0.15200
C4110       C  0.05016920  0.11505322  0.25022229    -0.08600
C4111       C  0.00211431  0.13258310  0.23507333     0.04900
C4112       C  0.99088291  0.12870758  0.26298044    -0.09700
C4113       C  0.97185194  0.12988390  0.26049802    -0.00100
C4114       C  0.96377979  0.13500448  0.22959748    -0.00200
C4115       C  0.97509806  0.13892511  0.20180447    -0.13200
C4116       C  0.99404622  0.13775045  0.20429413     0.00300
C4117       C  0.96098313  0.12664956  0.29031991     0.39600
C4118       C  0.00495936  0.14155550  0.17473996     0.36200
C4119       C  0.02163636  0.09805270  0.24505902     0.35900
C4120       C  0.06103051  0.16472302  0.23783191     0.36700
N4121       N  0.95222828  0.12419467  0.31422921    -0.44100
N4122       N  0.01378216  0.14460385  0.15115742    -0.44600
N4123       N  0.06858641  0.17842780  0.23436673    -0.41900
N4124       N  0.01395723  0.08429144  0.24507329    -0.43400
H4125       H  0.05679625  0.10227136  0.25605274     0.12800
H4126       H  0.02561839  0.16052195  0.23116701     0.09300
H4127       H  0.99703534  0.12500866  0.28688782     0.10400
H4128       H  0.96909796  0.14267032  0.17778097     0.16200
C4129       C  0.86613297  0.13232533  0.97398341    -0.02000
C4130       C  0.88267176  0.13717757  0.95821391     0.06600
C4131       C  0.89770304  0.14181932  0.97816049    -0.08000
C4132       C  0.89658902  0.14122542  0.01345675     0.04000
C4133       C  0.88005299  0.13624938  0.02931230    -0.15200
C4134       C  0.86487315  0.13211467  0.00933670    -0.08600
C4135       C  0.88456837  0.13764075  0.92091914     0.04900
C4136       C  0.88445186  0.15449719  0.90451047    -0.09700
C4137       C  0.88566103  0.15558777  0.86924452    -0.00100
C4138       C  0.88758860  0.13951952  0.84971160    -0.00200
C4139       C  0.88815506  0.12264524  0.86647721    -0.13200
C4140       C  0.88643789  0.12160133  0.90172233     0.00300
C4141       C  0.88479344  0.17341545  0.85405257     0.39600
C4142       C  0.88631244  0.10395688  0.91773483     0.36200
C4143       C  0.85039547  0.12723333  0.95438407     0.35900
C4144       C  0.91253252  0.14595641  0.03293048     0.36700
N4145       N  0.88390888  0.18777992  0.84223116    -0.44100
N4146       N  0.88606477  0.08987362  0.93078710    -0.44600
N4147       N  0.92523940  0.14966782  0.04874475    -0.41900
N4148       N  0.83779383  0.12301975  0.93872942    -0.43400
H4149       H  0.85221823  0.12810092  0.02134936     0.12800
H4150       H  0.91039466  0.14566690  0.96607986     0.09300
H4151       H  0.88303720  0.16684171  0.91933950     0.10400
H4152       H  0.88929209  0.11017415  0.85195128     0.16200
C4153       C  0.88156338  0.14915601  0.40302971    -0.02000
C4154       C  0.88249172  0.13251412  0.42066333     0.06600
C4155       C  0.88519321  0.11634406  0.40243775    -0.08000
C4156       C  0.88714637  0.11649985  0.36726957     0.04000
C4157       C  0.88641008  0.13316688  0.34954421    -0.15200
C4158       C  0.88358302  0.14934465  0.36787632    -0.08600
C4159       C  0.88074074  0.13154064  0.45803789     0.04900
C4160       C  0.86483933  0.13789400  0.47383049    -0.09700
C4161       C  0.86268033  0.13686597  0.50901898    -0.00100
C4162       C  0.87671136  0.12940869  0.52909319    -0.00200
C4163       C  0.89244789  0.12278678  0.51294072    -0.13200
C4164       C  0.89454099  0.12374967  0.47795768     0.00300
C4165       C  0.84571282  0.14294101  0.52351811     0.39600
C4166       C  0.91116898  0.11688029  0.46323507     0.36200
C4167       C  0.87859309  0.16623441  0.42026466     0.35900
C4168       C  0.88868571  0.09923694  0.35009888     0.36700
N4169       N  0.83208640  0.14770355  0.53519350    -0.44100
N4170       N  0.92441512  0.11121503  0.45145046    -0.44600
N4171       N  0.88979626  0.08533359  0.33652095    -0.41900
N4172       N  0.87606808  0.17996770  0.43380770    -0.43400
H4173       H  0.88278538  0.16223834  0.35463789     0.12800
H4174       H  0.88545578  0.10345731  0.41577718     0.09300
H4175       H  0.85396570  0.14344655  0.45852984     0.10400
H4176       H  0.90346269  0.11710131  0.52771107     0.16200
C4177       C  0.77504888  0.35841722  0.91733851    -0.02000
C4178       C  0.76204778  0.35566240  0.94293107     0.06600
C4179       C  0.76789012  0.35231721  0.97618121    -0.08000
C4180       C  0.78648359  0.35307299  0.98450660     0.04000
C4181       C  0.79933119  0.35747565  0.95926593    -0.15200
C4182       C  0.79344201  0.35934407  0.92564631    -0.08600
C4183       C  0.74243949  0.35833914  0.93582012     0.04900
C4184       C  0.73079941  0.34328195  0.93372768    -0.09700
C4185       C  0.71227415  0.34550984  0.92630680    -0.00100
C4186       C  0.70506898  0.36319620  0.92145762    -0.00200
C4187       C  0.71695702  0.37820190  0.92318323    -0.13200
C4188       C  0.73546971  0.37589696  0.92989173     0.00300
C4189       C  0.70102519  0.32941363  0.92515905     0.39600
C4190       C  0.74714860  0.39174031  0.93048403     0.36200
C4191       C  0.76971341  0.36121810  0.88260748     0.35900
C4192       C  0.79184555  0.35042938  0.01919753     0.36700
N4193       N  0.69224522  0.31633735  0.92422401    -0.44100
N4194       N  0.75667358  0.40429925  0.93060105    -0.44600
N4195       N  0.79605830  0.34821870  0.04705610    -0.41900
N4196       N  0.76536044  0.36353318  0.85485528    -0.43400
H4197       H  0.80326203  0.36222613  0.90583862     0.12800
H4198       H  0.75787443  0.35000355  0.99587259     0.09300
H4199       H  0.73622935  0.32975469  0.93783172     0.10400
H4200       H  0.71175435  0.39184901  0.91941404     0.16200
C4201       C  0.85363838  0.51166444  0.86612698    -0.02000
C4202       C  0.87072685  0.50292777  0.86694877     0.06600
C4203       C  0.88637044  0.51311312  0.85933972    -0.08000
C4204       C  0.88528583  0.53180451  0.85214492     0.04000
C4205       C  0.86824204  0.54074625  0.85265696    -0.15200
C4206       C  0.85253749  0.53036597  0.85916140    -0.08600
C4207       C  0.87256309  0.48323889  0.87581581     0.04900
C4208       C  0.87897307  0.47086728  0.85145794    -0.09700
C4209       C  0.88043737  0.45218044  0.85871008    -0.00100
C4210       C  0.87554983  0.44557060  0.89102805    -0.00200
C4211       C  0.86936287  0.45805193  0.91546181    -0.13200
C4212       C  0.86797515  0.47668041  0.90824929     0.00300
C4213       C  0.88602711  0.44003188  0.83198269     0.39600
C4214       C  0.86202630  0.48888453  0.93466925     0.36200
C4215       C  0.83700171  0.50160362  0.87154455     0.35900
C4216       C  0.90177563  0.54121738  0.84267415     0.36700
N4217       N  0.89042836  0.43040297  0.81031471    -0.44100
N4218       N  0.85720477  0.49875197  0.95564810    -0.44600
N4219       N  0.91503080  0.54861360  0.83480124    -0.41900
N4220       N  0.82368936  0.49349480  0.87583657    -0.43400
H4221       H  0.83933590  0.53691456  0.85904662     0.12800
H4222       H  0.89950645  0.50643092  0.85915025     0.09300
H4223       H  0.88248552  0.47578866  0.82644776     0.10400
H4224       H  0.86568147  0.45323157  0.94046854     0.16200
C4225       C  0.99340761  0.35939657  0.92626860    -0.02000
C4226       C  0.00094362  0.36601403  0.89591603     0.06600
C4227       C  0.98929044  0.37091087  0.86934305    -0.08000
C4228       C  0.97030374  0.36962050  0.87298348     0.04000
C4229       C  0.96272742  0.36348083  0.90378519    -0.15200
C4230       C  0.97451936  0.35821988  0.92999137    -0.08600
C4231       C  0.02098928  0.36702990  0.89118705     0.04900
C4232       C  0.03071313  0.35080781  0.88752938    -0.09700
C4233       C  0.04963382  0.35088551  0.88343719    -0.00100
C4234       C  0.05938497  0.36763115  0.88299432    -0.00200
C4235       C  0.04951128  0.38386906  0.88764109    -0.13200
C4236       C  0.03052186  0.38368455  0.89147073     0.00300
C4237       C  0.05840946  0.33343416  0.87966519     0.39600
C4238       C  0.02111689  0.40076442  0.89554607     0.36200
C4239       C  0.00483320  0.35395943  0.95413197     0.35900
C4240       C  0.95892617  0.37387840  0.84438771     0.36700
N4241       N  0.06523051  0.31935602  0.87650444    -0.44100
N4242       N  0.01367268  0.41451778  0.89873004    -0.44600
N4243       N  0.94966980  0.37713595  0.82156816    -0.41900
N4244       N  0.01402544  0.34957156  0.97637439    -0.43400
H4245       H  0.96896902  0.35346977  0.95382908     0.12800
H4246       H  0.99506107  0.37553237  0.84560702     0.09300
H4247       H  0.02340173  0.33796351  0.88768487     0.10400
H4248       H  0.05652136  0.39686159  0.88717708     0.16200
C4249       C  0.87471909  0.26756039  0.05379049    -0.02000
C4250       C  0.89140656  0.25955927  0.06306574     0.06600
C4251       C  0.90761880  0.26895683  0.05603266    -0.08000
C4252       C  0.90744287  0.28593983  0.03979864     0.04000
C4253       C  0.89070923  0.29375731  0.02960060    -0.15200
C4254       C  0.87450895  0.28437469  0.03724691    -0.08600
C4255       C  0.89210284  0.24119776  0.07914079     0.04900
C4256       C  0.88412963  0.22639000  0.06224631    -0.09700
C4257       C  0.88355100  0.20907233  0.07693686    -0.00100
C4258       C  0.89114443  0.20622921  0.10929375    -0.00200
C4259       C  0.89984612  0.22085112  0.12559064    -0.13200
C4260       C  0.90035278  0.23822625  0.11088342     0.00300
C4261       C  0.87572868  0.19433767  0.05759144     0.39600
C4262       C  0.90890909  0.25287535  0.12933629     0.36200
C4263       C  0.85753958  0.25888753  0.06131027     0.35900
C4264       C  0.92464773  0.29508778  0.03507219     0.36700
N4265       N  0.86956774  0.18257091  0.04184625    -0.44100
N4266       N  0.91585707  0.26461324  0.14399131    -0.44600
N4267       N  0.93858738  0.30220409  0.03172339    -0.41900
N4268       N  0.84378412  0.25189447  0.06722901    -0.43400
H4269       H  0.86150573  0.29008164  0.02997866     0.12800
H4270       H  0.92051402  0.26292747  0.06307400     0.09300
H4271       H  0.87828667  0.22839752  0.03737781     0.10400
H4272       H  0.90581884  0.21882859  0.15034380     0.16200
C4273       C  0.76607425  0.37389497  0.47438101    -0.02000
C4274       C  0.75926887  0.36035702  0.45226546     0.06600
C4275       C  0.77098854  0.34630980  0.44197348    -0.08000
C4276       C  0.78933497  0.34618766  0.45179456     0.04000
C4277       C  0.79645156  0.36064812  0.47121859    -0.15200
C4278       C  0.78457349  0.37417017  0.48296719    -0.08600
C4279       C  0.74041277  0.36140608  0.43812686     0.04900
C4280       C  0.73496936  0.37746935  0.42178756    -0.09700
C4281       C  0.71699135  0.37990883  0.41105951    -0.00100
C4282       C  0.70409262  0.36581402  0.41539461    -0.00200
C4283       C  0.70982360  0.34924931  0.42949516    -0.13200
C4284       C  0.72772524  0.34701435  0.44116721     0.00300
C4285       C  0.71202695  0.39723090  0.39656908     0.39600
C4286       C  0.73234541  0.33032783  0.45828578     0.36200
C4287       C  0.75435404  0.38771163  0.48847751     0.35900
C4288       C  0.80082881  0.33163403  0.43996465     0.36700
N4289       N  0.70812677  0.41117751  0.38515494    -0.44100
N4290       N  0.73608150  0.31696257  0.47203599    -0.44600
N4291       N  0.80993863  0.31981178  0.43075538    -0.41900
N4292       N  0.74492113  0.39871270  0.49988959    -0.43400
H4293       H  0.78990038  0.38530208  0.49804099     0.12800
H4294       H  0.76598655  0.33576649  0.42518309     0.09300
H4295       H  0.74469932  0.38843862  0.41842714     0.10400
H4296       H  0.69996307  0.33847500  0.43365215     0.16200
C4297       C  0.88408177  0.47059388  0.35895618    -0.02000
C4298       C  0.87443154  0.48321356  0.37898279     0.06600
C4299       C  0.86537476  0.47716085  0.40802987    -0.08000
C4300       C  0.86553045  0.45881418  0.41717808     0.04000
C4301       C  0.87458783  0.44596045  0.39651528    -0.15200
C4302       C  0.88412128  0.45213806  0.36788091    -0.08600
C4303       C  0.87309729  0.50277038  0.37015663     0.04900
C4304       C  0.85589513  0.50999257  0.36303403    -0.09700
C4305       C  0.85359768  0.52860631  0.35698935    -0.00100
C4306       C  0.86886936  0.54038594  0.35721670    -0.00200
C4307       C  0.88607166  0.53306658  0.36475804    -0.13200
C4308       C  0.88824642  0.51450815  0.37153640     0.00300
C4309       C  0.83528371  0.53528096  0.35279737     0.39600
C4310       C  0.90600479  0.50797530  0.38111624     0.36200
C4311       C  0.89358066  0.47613981  0.32869941     0.35900
C4312       C  0.85708260  0.45388602  0.44885141     0.36700
N4313       N  0.82057564  0.54060649  0.34983339    -0.44100
N4314       N  0.92024030  0.50277406  0.38885805    -0.44600
N4315       N  0.85042441  0.45025961  0.47449975    -0.41900
N4316       N  0.90128039  0.48054109  0.30450642    -0.43400
H4317       H  0.89129322  0.44247840  0.35199875     0.12800
H4318       H  0.85827450  0.48691411  0.42384873     0.09300
H4319       H  0.84412561  0.50105920  0.36296641     0.10400
H4320       H  0.89792832  0.54185354  0.36542151     0.16200
C4321       C  0.99233370  0.36388413  0.43221477    -0.02000
C4322       C  0.00006462  0.37077131  0.40225004     0.06600
C4323       C  0.98860143  0.37640060  0.37596254    -0.08000
C4324       C  0.96962909  0.37504299  0.37898368     0.04000
C4325       C  0.96183732  0.36783262  0.40887100    -0.15200
C4326       C  0.97345026  0.36241278  0.43522352    -0.08600
C4327       C  0.02005844  0.37104403  0.39701755     0.04900
C4328       C  0.02933301  0.35443733  0.39532853    -0.09700
C4329       C  0.04805662  0.35382983  0.38899662    -0.00100
C4330       C  0.05796486  0.37021268  0.38415434    -0.00200
C4331       C  0.04859604  0.38686501  0.38665167    -0.13200
C4332       C  0.02985486  0.38738890  0.39296686     0.00300
C4333       C  0.05653925  0.33613802  0.38782746     0.39600
C4334       C  0.02104977  0.40486821  0.39565234     0.36200
C4335       C  0.00347958  0.35861513  0.46055981     0.35900
C4336       C  0.95870412  0.38035026  0.35039187     0.36700
N4337       N  0.06311442  0.32185364  0.38691049    -0.44100
N4338       N  0.01411657  0.41893714  0.39793252    -0.44600
N4339       N  0.95019476  0.38458449  0.32712794    -0.41900
N4340       N  0.01233159  0.35444138  0.48341180    -0.43400
H4341       H  0.96775536  0.35722636  0.45862876     0.12800
H4342       H  0.99453905  0.38150046  0.35269796     0.09300
H4343       H  0.02180882  0.34183591  0.39854491     0.10400
H4344       H  0.05581436  0.39958380  0.38283436     0.16200
C4345       C  0.86344455  0.36659641  0.66474351    -0.02000
C4346       C  0.88071003  0.36424577  0.67968059     0.06600
C4347       C  0.89577446  0.36060630  0.65903105    -0.08000
C4348       C  0.89404927  0.36033311  0.62387433     0.04000
C4349       C  0.87700613  0.36390836  0.60884700    -0.15200
C4350       C  0.86171835  0.36647456  0.62946777    -0.08600
C4351       C  0.88332171  0.36481913  0.71682466     0.04900
C4352       C  0.88874123  0.34887864  0.73332440    -0.09700
C4353       C  0.89071451  0.34846382  0.76845246    -0.00100
C4354       C  0.88771828  0.36439753  0.78766650    -0.00200
C4355       C  0.88299953  0.38056649  0.77097813    -0.13200
C4356       C  0.88060747  0.38085876  0.73584678     0.00300
C4357       C  0.89578863  0.33148088  0.78408009     0.39600
C4358       C  0.87505986  0.39764561  0.71999658     0.36200
C4359       C  0.84732970  0.36890825  0.68514681     0.35900
C4360       C  0.90986868  0.35601071  0.60365813     0.36700
N4361       N  0.89979780  0.31779421  0.79639243    -0.44100
N4362       N  0.87041180  0.41104165  0.70735073    -0.44600
N4363       N  0.92243361  0.35247774  0.58727634    -0.41900
N4364       N  0.83444375  0.37073420  0.70161877    -0.43400
H4365       H  0.84855727  0.36890750  0.61803146     0.12800
H4366       H  0.90894698  0.35816177  0.67043892     0.09300
H4367       H  0.89099266  0.33657981  0.71872848     0.10400
H4368       H  0.88041206  0.39279670  0.78556694     0.16200
C4369       C  0.86919981  0.37922992  0.16346745    -0.02000
C4370       C  0.88257299  0.36843956  0.17943375     0.06600
C4371       C  0.89330770  0.35679170  0.15952215    -0.08000
C4372       C  0.89120384  0.35610466  0.12436228     0.04000
C4373       C  0.87806278  0.36711061  0.10851794    -0.15200
C4374       C  0.86716251  0.37858360  0.12822374    -0.08600
C4375       C  0.88475210  0.36795960  0.21691383     0.04900
C4376       C  0.88213437  0.35132889  0.23346238    -0.09700
C4377       C  0.88357081  0.34994315  0.26860499    -0.00100
C4378       C  0.88722403  0.36563641  0.28842992    -0.00200
C4379       C  0.89069716  0.38216192  0.27163204    -0.13200
C4380       C  0.88971993  0.38337476  0.23622250     0.00300
C4381       C  0.88184250  0.33199957  0.28308854     0.39600
C4382       C  0.89435467  0.40043547  0.22032716     0.36200
C4383       C  0.85712146  0.39075068  0.18265043     0.35900
C4384       C  0.90276313  0.34411395  0.10492910     0.36700
N4385       N  0.88057673  0.31744109  0.29395236    -0.44100
N4386       N  0.89817214  0.41413849  0.20776459    -0.44600
N4387       N  0.91198358  0.33450145  0.08932180    -0.41900
N4388       N  0.84742343  0.40005252  0.19788257    -0.43400
H4389       H  0.85720777  0.38721745  0.11599880     0.12800
H4390       H  0.90343692  0.34826862  0.17151940     0.09300
H4391       H  0.87889045  0.33928832  0.21873831     0.10400
H4392       H  0.89389556  0.39426676  0.28616708     0.16200
C4393       C  0.89776767  0.26141964  0.52294663    -0.02000
C4394       C  0.89184509  0.25864039  0.55645252     0.06600
C4395       C  0.88525823  0.27346677  0.57517812    -0.08000
C4396       C  0.88425615  0.29085580  0.56083600     0.04000
C4397       C  0.89001575  0.29363905  0.52716010    -0.15200
C4398       C  0.89696215  0.27886160  0.50866841    -0.08600
C4399       C  0.89174788  0.24026419  0.57208461     0.04900
C4400       C  0.90825546  0.23153744  0.57922506    -0.09700
C4401       C  0.90853837  0.21436983  0.59478579    -0.00100
C4402       C  0.89198065  0.20572122  0.60386036    -0.00200
C4403       C  0.87551154  0.21444986  0.59581570    -0.13200
C4404       C  0.87528828  0.23142642  0.57996976     0.00300
C4405       C  0.92597116  0.20586603  0.60020940     0.39600
C4406       C  0.85796464  0.23930510  0.57114199     0.36200
C4407       C  0.90392972  0.24639565  0.50239487     0.35900
C4408       C  0.87779828  0.30573105  0.58147741     0.36700
N4409       N  0.93995312  0.19904702  0.60443911    -0.44100
N4410       N  0.84410017  0.24557096  0.56382324    -0.44600
N4411       N  0.87269865  0.31769537  0.59797467    -0.41900
N4412       N  0.90876817  0.23423795  0.48611441    -0.43400
H4413       H  0.90125631  0.28084423  0.48268798     0.12800
H4414       H  0.88079508  0.27139383  0.60103897     0.09300
H4415       H  0.92095493  0.23820051  0.57266265     0.10400
H4416       H  0.86263035  0.20810074  0.60214769     0.16200
loop_ 
_geom_bond_atom_site_label_1 
_geom_bond_atom_site_label_2 
_geom_bond_distance 
_geom_bond_site_symmetry_2 
_ccdc_geom_bond_type 
Zr1           O2   2.441       .  S
Zr1           O3   2.459       .  S
Zr1           O4   2.451       .  S
Zr1           O7   2.443       .  S
Zr1           O9   2.383       .  S
Zr1          O10   2.387       .  S
Zr1          O11   2.415       .  S
Zr1          O12   2.398       .  S
O2           H58   0.989       .  S
O2           H66   0.991       .  S
O3           C23   1.288       .  A
O4           C25   1.286       .  A
O5          Zr15   2.425       .  S
O5           C24   1.284       .  A
O6          Zr14   2.422       .  S
O6           C25   1.284       .  A
O7           C24   1.286       .  A
O8          Zr16   2.408       .  S
O8           C23   1.279       .  A
O9          Zr14   2.398       .  S
O9          Zr16   2.377       .  S
O10         Zr15   2.395       .  S
O10         Zr16   2.384       .  S
O10          H45   0.966       .  S
O11         Zr14   2.403       .  S
O11         Zr31   2.394       .  S
O11          H48   0.965       .  S
O12         Zr15   2.378       .  S
O12         Zr31   2.375       .  S
Zr13         O38   2.440       .  S
Zr13         O32   2.448       .  S
Zr13         O40   2.472       .  S
Zr13         O28   2.444       .  S
Zr13         O19   2.393       .  S
Zr13         O20   2.416       .  S
Zr13         O21   2.384       .  S
Zr13         O22   2.386       .  S
Zr14         O33   2.437       .  S
Zr14         O26   2.434       .  S
Zr14         O27   2.432       .  S
Zr14         O20   2.403       .  S
Zr14         O21   2.387       .  S
Zr15         O17   2.434       .  S
Zr15         O39   2.439       .  S
Zr15         O41   2.411       .  S
Zr15         O19   2.385       .  S
Zr15         O22   2.397       .  S
Zr16         O42   2.434       .  S
Zr16         O43   2.435       .  S
Zr16         O18   2.436       .  S
Zr16         O19   2.386       .  S
Zr16         O20   2.391       .  S
O17          H54   0.990       .  S
O18          H49   0.989       .  S
O18          H63   0.990       .  S
O20          H46   0.965       .  S
O21         Zr31   2.375       .  S
O22         Zr31   2.388       .  S
O22          H47   0.966       .  S
C23        C4378   1.494       .  S
C24        C4301   1.482       .  S
C25        C4325   1.487       .  S
O26          H62   0.990       .  S
O27          C29   1.284       .  A
O28          C29   1.286       .  A
C29        C4397   1.480       .  S
O30         Zr31   2.441       .  S
O30          H59   0.990       .  S
Zr31         O34   2.438       .  S
Zr31         O35   2.441       .  S
Zr31         O36   2.399       .  S
O32          C37   1.285       .  A
O33          H50   0.990       .  S
O33          H65   0.990       .  S
O34          H51   0.990       .  S
O35          H55   0.990       .  S
O35          H64   0.990       .  S
O36          C37   1.278       .  A
C37        C4349   1.473       .  S
O38          H57   0.991       .  S
O38          H61   0.990       .  S
O39          H53   0.990       .  S
O39          H60   0.990       .  S
O40          C44   1.291       .  A
O41          C44   1.280       .  A
O42          H52   0.990       .  S
O43          H56   0.990       .  S
C44        C4277   1.481       .  S
Zr67         O68   2.441       .  S
Zr67         O69   2.445       .  S
Zr67         O70   2.466       .  S
Zr67         O73   2.471       .  S
Zr67         O75   2.392       .  S
Zr67         O76   2.383       .  S
Zr67         O77   2.414       .  S
Zr67         O78   2.398       .  S
O68         H124   0.990       .  S
O68         H132   0.990       .  S
O69          C89   1.285       .  A
O70          C91   1.290       .  A
O71         Zr81   2.421       .  S
O71          C90   1.283       .  A
O72         Zr80   2.413       .  S
O72          C91   1.282       .  A
O73          C90   1.292       .  A
O74         Zr82   2.410       .  S
O74          C89   1.279       .  A
O75         Zr80   2.401       .  S
O75         Zr82   2.373       .  S
O76         Zr81   2.398       .  S
O76         Zr82   2.387       .  S
O76         H111   0.966       .  S
O77         Zr80   2.409       .  S
O77         Zr97   2.386   1_556  S
O77         H114   0.965       .  S
O78         Zr81   2.384       .  S
O78         Zr97   2.383   1_556  S
Zr79        O104   2.440   1_556  S
Zr79         O98   2.459   1_556  S
Zr79        O106   2.476       .  S
Zr79         O94   2.439   1_556  S
Zr79         O85   2.385       .  S
Zr79         O86   2.424       .  S
Zr79         O87   2.377   1_556  S
Zr79         O88   2.388       .  S
Zr80         O99   2.435       .  S
Zr80         O92   2.436       .  S
Zr80         O93   2.435       .  S
Zr80         O86   2.400       .  S
Zr80         O87   2.387   1_556  S
Zr81         O83   2.436       .  S
Zr81        O105   2.441       .  S
Zr81        O107   2.413       .  S
Zr81         O85   2.374       .  S
Zr81         O88   2.398       .  S
Zr82        O108   2.437       .  S
Zr82        O109   2.436       .  S
Zr82         O84   2.437       .  S
Zr82         O85   2.374       .  S
Zr82         O86   2.405       .  S
O83         H120   0.990       .  S
O84         H115   0.990       .  S
O84         H129   0.990       .  S
O86         H112   0.966       .  S
O87         Zr97   2.375       .  S
O88         Zr97   2.391   1_556  S
O88         H113   0.966   1_556  S
C89        C4354   1.478       .  S
C90        C4210   1.491       .  S
C91        C4229   1.488       .  S
O92         H128   0.990       .  S
O93          C95   1.284   1_556  A
O94          C95   1.286       .  A
C95        C4253   1.494       .  S
O96         Zr97   2.438   1_556  S
O96         H125   0.990   1_556  S
Zr97        O100   2.438       .  S
Zr97        O101   2.438       .  S
Zr97        O102   2.398       .  S
O98         C103   1.287       .  A
O99         H116   0.990       .  S
O99         H131   0.990       .  S
O100        H117   0.990       .  S
O101        H121   0.990       .  S
O101        H130   0.990       .  S
O102        C103   1.276       .  A
C103       C4373   1.472       .  S
O104        H123   0.990       .  S
O104        H127   0.990       .  S
O105        H119   0.990       .  S
O105        H126   0.990       .  S
O106        C110   1.291       .  A
O107        C110   1.283       .  A
O108        H118   0.990       .  S
O109        H122   0.990       .  S
C110       C4181   1.481       .  S
Zr133       O134   2.442       .  S
Zr133       O135   2.449       .  S
Zr133       O136   2.463       .  S
Zr133       O139   2.455       .  S
Zr133       O141   2.388       .  S
Zr133       O142   2.387       .  S
Zr133       O143   2.415       .  S
Zr133       O144   2.404       .  S
O134        H190   0.990       .  S
O134        H198   0.990       .  S
O135        C155   1.286       .  A
O136        C157   1.288       .  A
O137       Zr147   2.424       .  S
O137        C156   1.284       .  A
O138       Zr146   2.420       .  S
O138        C157   1.282       .  A
O139        C156   1.288       .  A
O140       Zr148   2.398       .  S
O140        C155   1.277       .  A
O141       Zr146   2.401       .  S
O141       Zr148   2.381       .  S
O142       Zr147   2.394       .  S
O142       Zr148   2.385       .  S
O142        H177   0.966       .  S
O143       Zr146   2.409       .  S
O143       Zr163   2.393       .  S
O143        H180   0.965       .  S
O144       Zr147   2.383       .  S
O144       Zr163   2.383       .  S
Zr145       O170   2.440       .  S
Zr145       O164   2.452       .  S
Zr145       O172   2.454       .  S
Zr145       O160   2.441       .  S
Zr145       O151   2.390       .  S
Zr145       O152   2.414       .  S
Zr145       O153   2.377       .  S
Zr145       O154   2.388       .  S
Zr146       O165   2.438       .  S
Zr146       O158   2.435       .  S
Zr146       O159   2.434       .  S
Zr146       O152   2.401       .  S
Zr146       O153   2.387       .  S
Zr147       O149   2.434       .  S
Zr147       O171   2.437       .  S
Zr147       O173   2.428       .  S
Zr147       O151   2.383       .  S
Zr147       O154   2.397       .  S
Zr148       O174   2.437       .  S
Zr148       O175   2.436       .  S
Zr148       O150   2.437       .  S
Zr148       O151   2.380       .  S
Zr148       O152   2.397       .  S
O149        H186   0.990       .  S
O150        H181   0.990       .  S
O150        H195   0.990       .  S
O152        H178   0.965       .  S
O153       Zr163   2.374       .  S
O154       Zr163   2.388       .  S
O154        H179   0.966       .  S
C155       C4157   1.483       .  S
C156       C4090   1.486       .  S
C157       C4114   1.486       .  S
O158        H194   0.990       .  S
O159        C161   1.285       .  A
O160        C161   1.285       .  A
C161       C4258   1.485       .  S
O162       Zr163   2.439       .  S
O162        H191   0.990       .  S
Zr163       O166   2.439       .  S
Zr163       O167   2.442       .  S
Zr163       O168   2.403       .  S
O164        C169   1.286       .  A
O165        H182   0.990       .  S
O165        H197   0.990       .  S
O166        H183   0.990       .  S
O167        H187   0.990       .  S
O167        H196   0.990       .  S
O168        C169   1.278       .  A
C169       C4133   1.476       .  S
O170        H189   0.991       .  S
O170        H193   0.990       .  S
O171        H185   0.990       .  S
O171        H192   0.990       .  S
O172        C176   1.288       .  A
O173        C176   1.284       .  A
O174        H184   0.990       .  S
O175        H188   0.990       .  S
C176       C4061   1.482       .  S
Zr199       O200   2.440       .  S
Zr199       O201   2.447       .  S
Zr199       O202   2.460       .  S
Zr199       O205   2.443       .  S
Zr199       O207   2.385       .  S
Zr199       O208   2.383       .  S
Zr199       O209   2.410       .  S
Zr199       O210   2.402       .  S
O200        H256   0.989       .  S
O200        H264   0.990       .  S
O201        C221   1.286       .  A
O202        C223   1.288       .  A
O203       Zr213   2.422       .  S
O203        C222   1.283       .  A
O204       Zr212   2.404       .  S
O204        C223   1.280       .  A
O205        C222   1.287       .  A
O206       Zr214   2.412       .  S
O206        C221   1.280       .  A
O207       Zr212   2.401       .  S
O207       Zr214   2.377       .  S
O208       Zr213   2.391       .  S
O208       Zr214   2.383       .  S
O208        H243   0.966       .  S
O209       Zr212   2.404       .  S
O209       Zr229   2.392       .  S
O209        H246   0.965       .  S
O210       Zr213   2.383       .  S
O210       Zr229   2.383       .  S
Zr211       O236   2.442       .  S
Zr211       O230   2.440       .  S
Zr211       O238   2.450       .  S
Zr211       O226   2.435       .  S
Zr211       O217   2.390       .  S
Zr211       O218   2.409       .  S
Zr211       O219   2.377       .  S
Zr211       O220   2.387       .  S
Zr212       O231   2.437       .  S
Zr212       O224   2.434       .  S
Zr212       O225   2.431       .  S
Zr212       O218   2.395       .  S
Zr212       O219   2.385       .  S
Zr213       O215   2.435       .  S
Zr213       O237   2.437       .  S
Zr213       O239   2.409       .  S
Zr213       O217   2.384       .  S
Zr213       O220   2.392       .  S
Zr214       O240   2.434       .  S
Zr214       O241   2.436       .  S
Zr214       O216   2.436       .  S
Zr214       O217   2.383       .  S
Zr214       O218   2.391       .  S
O215        H252   0.990       .  S
O216        H247   0.990       .  S
O216        H261   0.990       .  S
O218        H244   0.965       .  S
O219       Zr229   2.379       .  S
O220       Zr229   2.385       .  S
O220        H245   0.966       .  S
C221       C4138   1.487       .  S
C222       C4018   1.490       .  S
C223       C4042   1.484       .  S
O224        H260   0.990       .  S
O225        C227   1.284       .  A
O226        C227   1.284       .  A
C227       C4402   1.492       .  S
O228       Zr229   2.440       .  S
O228        H257   0.990       .  S
Zr229       O232   2.438       .  S
Zr229       O233   2.440       .  S
Zr229       O234   2.402       .  S
O230        C235   1.285       .  A
O231        H248   0.990       .  S
O231        H263   0.990       .  S
O232        H249   0.990       .  S
O233        H253   0.990       .  S
O233        H262   0.990       .  S
O234        C235   1.279       .  A
C235       C4162   1.487       .  S
O236        H255   0.991       .  S
O236        H259   0.990       .  S
O237        H251   0.990       .  S
O237        H258   0.990       .  S
O238        C242   1.287       .  A
O239        C242   1.280       .  A
O240        H250   0.990       .  S
O241        H254   0.990       .  S
C242       C3989   1.472       .  S
Zr265       O266   2.443       .  S
Zr265       O267   2.454       .  S
Zr265       O268   2.471       .  S
Zr265       O271   2.438       .  S
Zr265       O273   2.385       .  S
Zr265       O274   2.389       .  S
Zr265       O275   2.411       .  S
Zr265       O276   2.410       .  S
O266        H322   0.990       .  S
O266        H330   0.991       .  S
O267        C287   1.287       .  A
O268        C289   1.289       .  A
O269       Zr279   2.448       .  S
O269        C288   1.288       .  A
O270       Zr278   2.420       .  S
O270        C289   1.281       .  A
O271        C288   1.286       .  A
O272       Zr280   2.402       .  S
O272        C287   1.279       .  A
O273       Zr278   2.403       .  S
O273       Zr280   2.385       .  S
O274       Zr279   2.387       .  S
O274       Zr280   2.377       .  S
O274        H309   0.966       .  S
O275       Zr278   2.404       .  S
O275       Zr295   2.383       .  S
O275        H312   0.964       .  S
O276       Zr279   2.393       .  S
O276       Zr295   2.391       .  S
Zr277       O302   2.442   1_554  S
Zr277       O296   2.447   1_554  S
Zr277       O304   2.432       .  S
Zr277       O292   2.457       .  S
Zr277       O283   2.407       .  S
Zr277       O284   2.407       .  S
Zr277       O285   2.375       .  S
Zr277       O286   2.389       .  S
Zr278       O297   2.435       .  S
Zr278       O290   2.435       .  S
Zr278       O291   2.439       .  S
Zr278       O284   2.394       .  S
Zr278       O285   2.397       .  S
Zr279       O281   2.435       .  S
Zr279       O303   2.436       .  S
Zr279       O305   2.429       .  S
Zr279       O283   2.394       .  S
Zr279       O286   2.398       .  S
Zr280       O306   2.435       .  S
Zr280       O307   2.436       .  S
Zr280       O282   2.437       .  S
Zr280       O283   2.389       .  S
Zr280       O284   2.379       .  S
O281        H318   0.990       .  S
O282        H313   0.990       .  S
O282        H327   0.990       .  S
O284        H310   0.964       .  S
O285       Zr295   2.391       .  S
O286       Zr295   2.373       .  S
O286        H311   0.966       .  S
C287       C3941   1.482       .  S
C288       C3965   1.491       .  S
C289       C3850   1.478       .  S
O290        H326   0.990       .  S
O291        C293   1.286       .  A
O292        C293   1.288       .  A
C293       C3869   1.503   1_554  S
O294       Zr295   2.437       .  S
O294        H323   0.990       .  S
Zr295       O298   2.436   1_554  S
Zr295       O299   2.441   1_554  S
Zr295       O300   2.406   1_554  S
O296        C301   1.286       .  A
O297        H314   0.990       .  S
O297        H329   0.990       .  S
O298        H315   0.990       .  S
O299        H319   0.990       .  S
O299        H328   0.989       .  S
O300        C301   1.279       .  A
C301       C3917   1.484       .  S
O302        H321   0.990   1_556  S
O302        H325   0.990       .  S
O303        H317   0.990       .  S
O303        H324   0.989       .  S
O304        C308   1.285       .  A
O305        C308   1.285       .  A
O306        H316   0.990       .  S
O307        H320   0.990       .  S
C308       C3898   1.483       .  S
Zr331       O332   2.444       .  S
Zr331       O333   2.448       .  S
Zr331       O334   2.467       .  S
Zr331       O337   2.427       .  S
Zr331       O339   2.384       .  S
Zr331       O340   2.389       .  S
Zr331       O341   2.408       .  S
Zr331       O342   2.413       .  S
O332        H388   0.990       .  S
O332        H396   0.991       .  S
O333        C353   1.286       .  A
O334        C355   1.288       .  A
O335       Zr345   2.454       .  S
O335        C354   1.289       .  A
O336       Zr344   2.418       .  S
O336        C355   1.281       .  A
O337        C354   1.284       .  A
O338       Zr346   2.400       .  S
O338        C353   1.279       .  A
O339       Zr344   2.399       .  S
O339       Zr346   2.387       .  S
O340       Zr345   2.393       .  S
O340       Zr346   2.377       .  S
O340        H375   0.966       .  S
O341       Zr344   2.400       .  S
O341       Zr361   2.383       .  S
O341        H378   0.964       .  S
O342       Zr345   2.391       .  S
O342       Zr361   2.392       .  S
Zr343       O368   2.442       .  S
Zr343       O362   2.448       .  S
Zr343       O370   2.434       .  S
Zr343       O358   2.440       .  S
Zr343       O349   2.403       .  S
Zr343       O350   2.413       .  S
Zr343       O351   2.375       .  S
Zr343       O352   2.389       .  S
Zr344       O363   2.436       .  S
Zr344       O356   2.435       .  S
Zr344       O357   2.426       .  S
Zr344       O350   2.399       .  S
Zr344       O351   2.396       .  S
Zr345       O347   2.434       .  S
Zr345       O369   2.438       .  S
Zr345       O371   2.435       .  S
Zr345       O349   2.396       .  S
Zr345       O352   2.399       .  S
Zr346       O372   2.434       .  S
Zr346       O373   2.435       .  S
Zr346       O348   2.438       .  S
Zr346       O349   2.387       .  S
Zr346       O350   2.382       .  S
O347        H384   0.990       .  S
O348        H379   0.990       .  S
O348        H393   0.990       .  S
O350        H376   0.965       .  S
O351       Zr361   2.385       .  S
O352       Zr361   2.375       .  S
O352        H377   0.966       .  S
C353       C3922   1.486       .  S
C354       C3821   1.501       .  S
C355       C3749   1.479       .  S
O356        H392   0.990       .  S
O357        C359   1.283       .  A
O358        C359   1.285       .  A
C359       C3778   1.489       .  S
O360       Zr361   2.439       .  S
O360        H389   0.990       .  S
Zr361       O364   2.436       .  S
Zr361       O365   2.440       .  S
Zr361       O366   2.408       .  S
O362        C367   1.284       .  A
O363        H380   0.990       .  S
O363        H395   0.990       .  S
O364        H381   0.990       .  S
O365        H385   0.990       .  S
O365        H394   0.990       .  S
O366        C367   1.280       .  A
C367       C3946   1.489       .  S
O368        H387   0.991       .  S
O368        H391   0.990       .  S
O369        H383   0.990       .  S
O369        H390   0.990       .  S
O370        C374   1.284       .  A
O371        C374   1.285       .  A
O372        H382   0.989       .  S
O373        H386   0.990       .  S
C374       C3797   1.476       .  S
Zr397       O398   2.442       .  S
Zr397       O399   2.452       .  S
Zr397       O400   2.459       .  S
Zr397       O403   2.444       .  S
Zr397       O405   2.386       .  S
Zr397       O406   2.386       .  S
Zr397       O407   2.417       .  S
Zr397       O408   2.412       .  S
O398        H454   0.990       .  S
O398        H462   0.990       .  S
O399        C419   1.285       .  A
O400        C421   1.287       .  A
O401       Zr411   2.438       .  S
O401        C420   1.285       .  A
O402       Zr410   2.427       .  S
O402        C421   1.281       .  A
O403        C420   1.286       .  A
O404       Zr412   2.395       .  S
O404        C419   1.277       .  A
O405       Zr410   2.397       .  S
O405       Zr412   2.389       .  S
O406       Zr411   2.386       .  S
O406       Zr412   2.377       .  S
O406        H441   0.965       .  S
O407       Zr410   2.400       .  S
O407       Zr427   2.375       .  S
O407        H444   0.963       .  S
O408       Zr411   2.392       .  S
O408       Zr427   2.397       .  S
Zr409       O434   2.441       .  S
Zr409       O428   2.449       .  S
Zr409       O436   2.432       .  S
Zr409       O424   2.453       .  S
Zr409       O415   2.405       .  S
Zr409       O416   2.413       .  S
Zr409       O417   2.376       .  S
Zr409       O418   2.389       .  S
Zr410       O429   2.437       .  S
Zr410       O422   2.436       .  S
Zr410       O423   2.425       .  S
Zr410       O416   2.399       .  S
Zr410       O417   2.400       .  S
Zr411       O413   2.434       .  S
Zr411       O435   2.440       .  S
Zr411       O437   2.422       .  S
Zr411       O415   2.396       .  S
Zr411       O418   2.401       .  S
Zr412       O438   2.435       .  S
Zr412       O439   2.437       .  S
Zr412       O414   2.438       .  S
Zr412       O415   2.387       .  S
Zr412       O416   2.374       .  S
O413        H450   0.990       .  S
O414        H445   0.990       .  S
O414        H459   0.990       .  S
O416        H442   0.964       .  S
O417       Zr427   2.386       .  S
O418       Zr427   2.371       .  S
O418        H443   0.966       .  S
C419       C3725   1.473       .  S
C420       C3970   1.487       .  S
C421       C3658   1.474       .  S
O422        H458   0.990       .  S
O423        C425   1.283       .  A
O424        C425   1.288       .  A
C425       C4330   1.491       .  S
O426       Zr427   2.438       .  S
O426        H455   0.990       .  S
Zr427       O430   2.438       .  S
Zr427       O431   2.439       .  S
Zr427       O432   2.398       .  S
O428        C433   1.285       .  A
O429        H446   0.990       .  S
O429        H461   0.990       .  S
O430        H447   0.990       .  S
O431        H451   0.990       .  S
O431        H460   0.990       .  S
O432        C433   1.278       .  A
C433       C3701   1.480       .  S
O434        H453   0.990       .  S
O434        H457   0.990       .  S
O435        H449   0.990       .  S
O435        H456   0.990       .  S
O436        C440   1.285       .  A
O437        C440   1.283       .  A
O438        H448   0.990       .  S
O439        H452   0.990       .  S
C440       C3677   1.479       .  S
Zr463       O464   2.442       .  S
Zr463       O465   2.449       .  S
Zr463       O466   2.459       .  S
Zr463       O469   2.428       .  S
Zr463       O471   2.379       .  S
Zr463       O472   2.388       .  S
Zr463       O473   2.408       .  S
Zr463       O474   2.409       .  S
O464        H520   0.990       .  S
O464        H528   0.990       .  S
O465        C485   1.286       .  A
O466        C487   1.287       .  A
O467       Zr477   2.455       .  S
O467        C486   1.289       .  A
O468       Zr476   2.414       .  S
O468        C487   1.280       .  A
O469        C486   1.284       .  A
O470       Zr478   2.401       .  S
O470        C485   1.279       .  A
O471       Zr476   2.398       .  S
O471       Zr478   2.384       .  S
O472       Zr477   2.392       .  S
O472       Zr478   2.376       .  S
O472        H507   0.966       .  S
O473       Zr476   2.398       .  S
O473       Zr493   2.383       .  S
O473        H510   0.964       .  S
O474       Zr477   2.386       .  S
O474       Zr493   2.392       .  S
Zr475       O500   2.440       .  S
Zr475       O494   2.454       .  S
Zr475       O502   2.441       .  S
Zr475       O490   2.469       .  S
Zr475       O481   2.410       .  S
Zr475       O482   2.407       .  S
Zr475       O483   2.376       .  S
Zr475       O484   2.392       .  S
Zr476       O495   2.436       .  S
Zr476       O488   2.435       .  S
Zr476       O489   2.419       .  S
Zr476       O482   2.397       .  S
Zr476       O483   2.390       .  S
Zr477       O479   2.434       .  S
Zr477       O501   2.437       .  S
Zr477       O503   2.435       .  S
Zr477       O481   2.395       .  S
Zr477       O484   2.398       .  S
Zr478       O504   2.435       .  S
Zr478       O505   2.436       .  S
Zr478       O480   2.437       .  S
Zr478       O481   2.389       .  S
Zr478       O482   2.372       .  S
O479        H516   0.990       .  S
O480        H511   0.990       .  S
O480        H525   0.990       .  S
O482        H508   0.964       .  S
O483       Zr493   2.386       .  S
O484       Zr493   2.378       .  S
O484        H509   0.965       .  S
C485       C3706   1.488       .  S
C486       C3826   1.504       .  S
C487       C3610   1.475       .  S
O488        H524   0.990       .  S
O489        C491   1.282       .  A
O490        C491   1.291       .  A
C491       C4234   1.498       .  S
O492       Zr493   2.441       .  S
O492        H521   0.990       .  S
Zr493       O496   2.439       .  S
Zr493       O497   2.443       .  S
Zr493       O498   2.405       .  S
O494        C499   1.287       .  A
O495        H512   0.990       .  S
O495        H527   0.990       .  S
O496        H513   0.990       .  S
O497        H517   0.990       .  S
O497        H526   0.990       .  S
O498        C499   1.280       .  A
C499       C3730   1.490       .  S
O500        H519   0.990       .  S
O500        H523   0.990       .  S
O501        H515   0.990       .  S
O501        H522   0.990       .  S
O502        C506   1.287       .  A
O503        C506   1.286       .  A
O504        H514   0.990       .  S
O505        H518   0.990       .  S
C506       C3629   1.496       .  S
Zr529       O530   2.443       .  S
Zr529       O531   2.461       .  S
Zr529       O532   2.459       .  S
Zr529       O535   2.446       .  S
Zr529       O537   2.385       .  S
Zr529       O538   2.389       .  S
Zr529       O539   2.417       .  S
Zr529       O540   2.403       .  S
O530        H586   0.990       .  S
O530        H594   0.991       .  S
O531        C551   1.287       .  A
O532        C553   1.288       .  A
O533       Zr543   2.415       .  S
O533        C552   1.281       .  A
O534       Zr542   2.421       .  S
O534        C553   1.281       .  A
O535        C552   1.286       .  A
O536       Zr544   2.405       .  S
O536        C551   1.278       .  A
O537       Zr542   2.399       .  S
O537       Zr544   2.382       .  S
O538       Zr543   2.396       .  S
O538       Zr544   2.383       .  S
O538        H573   0.966       .  S
O539       Zr542   2.403       .  S
O539       Zr559   2.398       .  S
O539        H576   0.965       .  S
O540       Zr543   2.383       .  S
O540       Zr559   2.382       .  S
Zr541       O566   2.441       .  S
Zr541       O560   2.456       .  S
Zr541       O568   2.461       .  S
Zr541       O556   2.444       .  S
Zr541       O547   2.395       .  S
Zr541       O548   2.417       .  S
Zr541       O549   2.382       .  S
Zr541       O550   2.386       .  S
Zr542       O561   2.438       .  S
Zr542       O554   2.435       .  S
Zr542       O555   2.428       .  S
Zr542       O548   2.397       .  S
Zr542       O549   2.393       .  S
Zr543       O545   2.436       .  S
Zr543       O567   2.439       .  S
Zr543       O569   2.410       .  S
Zr543       O547   2.384       .  S
Zr543       O550   2.393       .  S
Zr544       O570   2.435       .  S
Zr544       O571   2.436       .  S
Zr544       O546   2.435       .  S
Zr544       O547   2.381       .  S
Zr544       O548   2.389       .  S
O545        H582   0.990       .  S
O546        H577   0.990       .  S
O546        H591   0.990       .  S
O548        H574   0.965       .  S
O549       Zr559   2.380       .  S
O550       Zr559   2.382       .  S
O550        H575   0.966       .  S
C551       C3557   1.481       .  S
C552       C3682   1.470       .  S
C553       C3509   1.495       .  S
O554        H590   0.990       .  S
O555        C557   1.283       .  A
O556        C557   1.285       .  A
C557       C3586   1.475       .  S
O558       Zr559   2.437       .  S
O558        H587   0.990       .  S
Zr559       O562   2.436       .  S
Zr559       O563   2.440       .  S
Zr559       O564   2.404       .  S
O560        C565   1.287       .  A
O561        H578   0.990       .  S
O561        H593   0.990       .  S
O562        H579   0.990       .  S
O563        H583   0.990       .  S
O563        H592   0.990       .  S
O564        C565   1.279       .  A
C565       C3533   1.483       .  S
O566        H585   0.991       .  S
O566        H589   0.990       .  S
O567        H581   0.990       .  S
O567        H588   0.990       .  S
O568        C572   1.289       .  A
O569        C572   1.280       .  A
O570        H580   0.990       .  S
O571        H584   0.990       .  S
C572       C3485   1.476       .  S
Zr595       O596   2.442       .  S
Zr595       O597   2.459       .  S
Zr595       O598   2.462       .  S
Zr595       O601   2.463       .  S
Zr595       O603   2.389       .  S
Zr595       O604   2.387       .  S
Zr595       O605   2.420       .  S
Zr595       O606   2.403       .  S
O596        H652   0.990       .  S
O596        H660   0.990       .  S
O597        C617   1.287       .  A
O598        C619   1.289       .  A
O599       Zr609   2.416       .  S
O599        C618   1.281       .  A
O600       Zr608   2.417       .  S
O600        C619   1.281       .  A
O601        C618   1.290       .  A
O602       Zr610   2.404       .  S
O602        C617   1.278       .  A
O603       Zr608   2.397       .  S
O603       Zr610   2.378       .  S
O604       Zr609   2.391       .  S
O604       Zr610   2.389       .  S
O604        H639   0.965       .  S
O605       Zr608   2.405       .  S
O605       Zr625   2.388   1_556  S
O605        H642   0.965       .  S
O606       Zr609   2.383       .  S
O606       Zr625   2.382   1_556  S
Zr607       O632   2.439   1_556  S
Zr607       O626   2.453   1_556  S
Zr607       O634   2.471       .  S
Zr607       O622   2.440   1_556  S
Zr607       O613   2.390       .  S
Zr607       O614   2.416       .  S
Zr607       O615   2.383   1_556  S
Zr607       O616   2.389   1_556  S
Zr608       O627   2.439       .  S
Zr608       O620   2.435       .  S
Zr608       O621   2.422       .  S
Zr608       O614   2.395       .  S
Zr608       O615   2.390   1_556  S
Zr609       O611   2.436       .  S
Zr609       O633   2.438       .  S
Zr609       O635   2.409       .  S
Zr609       O613   2.382       .  S
Zr609       O616   2.390   1_556  S
Zr610       O636   2.436       .  S
Zr610       O637   2.436       .  S
Zr610       O612   2.438       .  S
Zr610       O613   2.381       .  S
Zr610       O614   2.400       .  S
O611        H648   0.990       .  S
O612        H643   0.990       .  S
O612        H657   0.990       .  S
O614        H640   0.966       .  S
O615       Zr625   2.376       .  S
O616       Zr625   2.386       .  S
O616        H641   0.966       .  S
C617       C3538   1.474       .  S
C618       C3634   1.491       .  S
C619       C3442   1.492       .  S
O620        H656   0.990       .  S
O621        C623   1.282   1_556  A
O622        C623   1.284       .  A
C623       C3461   1.488       .  S
O624       Zr625   2.439       .  S
O624        H653   0.990       .  S
Zr625       O628   2.435       .  S
Zr625       O629   2.438       .  S
Zr625       O630   2.404       .  S
O626        C631   1.287       .  A
O627        H644   0.990       .  S
O627        H659   0.990       .  S
O628        H645   0.989       .  S
O629        H649   0.990       .  S
O629        H658   0.990       .  S
O630        C631   1.279       .  A
C631       C3562   1.478       .  S
O632        H651   0.991       .  S
O632        H655   0.990       .  S
O633        H647   0.990       .  S
O633        H654   0.990       .  S
O634        C638   1.291       .  A
O635        C638   1.282       .  A
O636        H646   0.990       .  S
O637        H650   0.990       .  S
C638       C3413   1.496       .  S
Zr661       O662   2.441       .  S
Zr661       O663   2.454       .  S
Zr661       O664   2.458       .  S
Zr661       O667   2.444       .  S
Zr661       O669   2.387       .  S
Zr661       O670   2.386       .  S
Zr661       O671   2.410       .  S
Zr661       O672   2.407       .  S
O662        H718   0.990       .  S
O662        H726   0.990       .  S
O663        C683   1.287       .  A
O664        C685   1.287       .  A
O665       Zr675   2.415       .  S
O665        C684   1.283       .  A
O666       Zr674   2.409       .  S
O666        C685   1.281       .  A
O667        C684   1.287       .  A
O668       Zr676   2.420       .  S
O668        C683   1.282       .  A
O669       Zr674   2.399       .  S
O669       Zr676   2.373       .  S
O670       Zr675   2.392       .  S
O670       Zr676   2.384       .  S
O670        H705   0.965       .  S
O671       Zr674   2.401       .  S
O671       Zr691   2.393       .  S
O671        H708   0.965       .  S
O672       Zr675   2.388       .  S
O672       Zr691   2.390       .  S
Zr673       O698   2.439       .  S
Zr673       O692   2.450       .  S
Zr673       O700   2.447       .  S
Zr673       O688   2.425       .  S
Zr673       O679   2.388       .  S
Zr673       O680   2.415       .  S
Zr673       O681   2.376       .  S
Zr673       O682   2.387       .  S
Zr674       O693   2.438       .  S
Zr674       O686   2.435       .  S
Zr674       O687   2.421       .  S
Zr674       O680   2.395       .  S
Zr674       O681   2.382       .  S
Zr675       O677   2.436       .  S
Zr675       O699   2.440       .  S
Zr675       O701   2.425       .  S
Zr675       O679   2.379       .  S
Zr675       O682   2.394       .  S
Zr676       O702   2.433       .  S
Zr676       O703   2.435       .  S
Zr676       O678   2.438       .  S
Zr676       O679   2.386       .  S
Zr676       O680   2.400       .  S
O677        H714   0.990       .  S
O678        H709   0.990       .  S
O678        H723   0.990       .  S
O680        H706   0.966       .  S
O681       Zr691   2.372       .  S
O682       Zr691   2.393       .  S
O682        H707   0.966       .  S
C683       C3389   1.483       .  S
C684       C3341   1.490       .  S
C685       C3322   1.485       .  S
O686        H722   0.990       .  S
O687        C689   1.283       .  A
O688        C689   1.282       .  A
C689       C3466   1.478       .  S
O690       Zr691   2.439       .  S
O690        H719   0.990       .  S
Zr691       O694   2.438       .  S
Zr691       O695   2.439       .  S
Zr691       O696   2.418       .  S
O692        C697   1.285       .  A
O693        H710   0.990       .  S
O693        H725   0.990       .  S
O694        H711   0.990       .  S
O695        H715   0.990       .  S
O695        H724   0.990       .  S
O696        C697   1.280       .  A
C697       C3365   1.476       .  S
O698        H717   0.990       .  S
O698        H721   0.989       .  S
O699        H713   0.990       .  S
O699        H720   0.990       .  S
O700        C704   1.285       .  A
O701        C704   1.282       .  A
O702        H712   0.990       .  S
O703        H716   0.990       .  S
C704       C3298   1.474       .  S
Zr727       O728   2.442       .  S
Zr727       O729   2.456       .  S
Zr727       O730   2.450       .  S
Zr727       O733   2.458       .  S
Zr727       O735   2.390       .  S
Zr727       O736   2.382       .  S
Zr727       O737   2.418       .  S
Zr727       O738   2.401       .  S
O728        H784   0.989       .  S
O728        H792   0.990       .  S
O729        C749   1.288       .  A
O730        C751   1.286       .  A
O731       Zr741   2.402       .  S
O731        C750   1.279       .  A
O732       Zr740   2.431       .  S
O732        C751   1.284       .  A
O733        C750   1.289       .  A
O734       Zr742   2.413       .  S
O734        C749   1.280       .  A
O735       Zr740   2.402       .  S
O735       Zr742   2.382       .  S
O736       Zr741   2.391       .  S
O736       Zr742   2.384       .  S
O736        H771   0.966       .  S
O737       Zr740   2.407       .  S
O737       Zr757   2.389       .  S
O737        H774   0.965       .  S
O738       Zr741   2.385       .  S
O738       Zr757   2.391       .  S
Zr739       O764   2.442       .  S
Zr739       O758   2.451       .  S
Zr739       O766   2.460       .  S
Zr739       O754   2.424       .  S
Zr739       O745   2.389       .  S
Zr739       O746   2.421       .  S
Zr739       O747   2.381       .  S
Zr739       O748   2.382       .  S
Zr740       O759   2.439       .  S
Zr740       O752   2.434       .  S
Zr740       O753   2.439       .  S
Zr740       O746   2.401       .  S
Zr740       O747   2.396       .  S
Zr741       O743   2.436       .  S
Zr741       O765   2.435       .  S
Zr741       O767   2.405       .  S
Zr741       O745   2.379       .  S
Zr741       O748   2.392       .  S
Zr742       O768   2.436       .  S
Zr742       O769   2.437       .  S
Zr742       O744   2.437       .  S
Zr742       O745   2.385       .  S
Zr742       O746   2.395       .  S
O743        H780   0.990       .  S
O744        H775   0.990       .  S
O744        H789   0.990       .  S
O746        H772   0.965       .  S
O747       Zr757   2.375       .  S
O748       Zr757   2.385       .  S
O748        H773   0.966       .  S
C749       C3370   1.488       .  S
C750       C3269   1.483       .  S
C751       C3245   1.487       .  S
O752        H788   0.990       .  S
O753        C755   1.285       .  A
O754        C755   1.282       .  A
C755       C3581   1.476       .  S
O756       Zr757   2.439       .  S
O756        H785   0.991       .  S
Zr757       O760   2.438       .  S
Zr757       O761   2.438       .  S
Zr757       O762   2.412       .  S
O758        C763   1.286       .  A
O759        H776   0.990       .  S
O759        H791   0.990       .  S
O760        H777   0.990       .  S
O761        H781   0.990       .  S
O761        H790   0.990       .  S
O762        C763   1.280       .  A
C763       C3394   1.486       .  S
O764        H783   0.990       .  S
O764        H787   0.990       .  S
O765        H779   0.990       .  S
O765        H786   0.989       .  S
O766        C770   1.288       .  A
O767        C770   1.280       .  A
O768        H778   0.990       .  S
O769        H782   0.990       .  S
C770       C3226   1.482       .  S
Zr793       O794   2.442       .  S
Zr793       O795   2.449       .  S
Zr793       O796   2.463       .  S
Zr793       O799   2.439       .  S
Zr793       O801   2.385       .  S
Zr793       O802   2.387       .  S
Zr793       O803   2.413       .  S
Zr793       O804   2.414       .  S
O794        H850   0.990       .  S
O794        H858   0.990       .  S
O795        C815   1.286       .  A
O796        C817   1.288       .  A
O797       Zr807   2.434       .  S
O797        C816   1.284       .  A
O798       Zr806   2.415       .  S
O798        C817   1.280       .  A
O799        C816   1.286       .  A
O800       Zr808   2.404       .  S
O800        C815   1.280       .  A
O801       Zr806   2.401       .  S
O801       Zr808   2.384       .  S
O802       Zr807   2.391       .  S
O802       Zr808   2.373       .  S
O802        H837   0.966       .  S
O803       Zr806   2.397       .  S
O803       Zr823   2.378       .  S
O803        H840   0.964       .  S
O804       Zr807   2.390       .  S
O804       Zr823   2.399       .  S
Zr805       O830   2.440       .  S
Zr805       O824   2.448   1_554  S
Zr805       O832   2.439       .  S
Zr805       O820   2.455       .  S
Zr805       O811   2.404       .  S
Zr805       O812   2.409       .  S
Zr805       O813   2.375       .  S
Zr805       O814   2.389       .  S
Zr806       O825   2.438       .  S
Zr806       O818   2.435       .  S
Zr806       O819   2.417       .  S
Zr806       O812   2.395       .  S
Zr806       O813   2.394       .  S
Zr807       O809   2.435       .  S
Zr807       O831   2.438       .  S
Zr807       O833   2.424       .  S
Zr807       O811   2.392       .  S
Zr807       O814   2.395       .  S
Zr808       O834   2.434       .  S
Zr808       O835   2.435       .  S
Zr808       O810   2.437       .  S
Zr808       O811   2.387       .  S
Zr808       O812   2.379       .  S
O809        H846   0.990       .  S
O810        H841   0.990       .  S
O810        H855   0.990       .  S
O812        H838   0.965       .  S
O813       Zr823   2.385       .  S
O814       Zr823   2.377       .  S
O814        H839   0.966       .  S
C815       C3173   1.492       .  S
C816       C3197   1.489       .  S
C817       C3082   1.477       .  S
O818        H854   0.990       .  S
O819        C821   1.282       .  A
O820        C821   1.287       .  A
C821       C3125   1.484       .  S
O822       Zr823   2.442       .  S
O822        H851   0.990       .  S
Zr823       O826   2.439   1_554  S
Zr823       O827   2.439   1_554  S
Zr823       O828   2.411   1_554  S
O824        C829   1.287       .  A
O825        H842   0.990       .  S
O825        H857   0.990       .  S
O826        H843   0.990       .  S
O827        H847   0.989       .  S
O827        H856   0.989       .  S
O828        C829   1.280       .  A
C829       C3154   1.485       .  S
O830        H849   0.990       .  S
O830        H853   0.990   1_554  S
O831        H845   0.990       .  S
O831        H852   0.990       .  S
O832        C836   1.286       .  A
O833        C836   1.284       .  A
O834        H844   0.990       .  S
O835        H848   0.990       .  S
C836       C3101   1.488       .  S
Zr859       O860   2.442       .  S
Zr859       O861   2.445       .  S
Zr859       O862   2.460       .  S
Zr859       O865   2.438       .  S
Zr859       O867   2.383       .  S
Zr859       O868   2.385       .  S
Zr859       O869   2.410       .  S
Zr859       O870   2.406       .  S
O860        H916   0.990       .  S
O860        H924   0.990       .  S
O861        C881   1.285       .  A
O862        C883   1.288       .  A
O863       Zr873   2.436       .  S
O863        C882   1.285       .  A
O864       Zr872   2.418       .  S
O864        C883   1.282       .  A
O865        C882   1.286       .  A
O866       Zr874   2.391       .  S
O866        C881   1.277       .  A
O867       Zr872   2.399       .  S
O867       Zr874   2.382       .  S
O868       Zr873   2.388       .  S
O868       Zr874   2.373       .  S
O868        H903   0.966       .  S
O869       Zr872   2.400       .  S
O869       Zr889   2.368       .  S
O869        H906   0.964       .  S
O870       Zr873   2.387       .  S
O870       Zr889   2.387       .  S
Zr871       O896   2.442       .  S
Zr871       O890   2.444       .  S
Zr871       O898   2.447       .  S
Zr871       O886   2.472       .  S
Zr871       O877   2.408       .  S
Zr871       O878   2.407       .  S
Zr871       O879   2.381       .  S
Zr871       O880   2.392       .  S
Zr872       O891   2.436       .  S
Zr872       O884   2.435       .  S
Zr872       O885   2.423       .  S
Zr872       O878   2.397       .  S
Zr872       O879   2.395       .  S
Zr873       O875   2.435       .  S
Zr873       O897   2.438       .  S
Zr873       O899   2.416       .  S
Zr873       O877   2.397       .  S
Zr873       O880   2.391       .  S
Zr874       O900   2.434       .  S
Zr874       O901   2.435       .  S
Zr874       O876   2.438       .  S
Zr874       O877   2.392       .  S
Zr874       O878   2.368       .  S
O875        H912   0.990       .  S
O876        H907   0.990       .  S
O876        H921   0.990       .  S
O878        H904   0.964       .  S
O879       Zr889   2.390       .  S
O880       Zr889   2.376       .  S
O880        H905   0.966       .  S
C881       C3149   1.480       .  S
C882       C3053   1.491       .  S
C883       C2981   1.471       .  S
O884        H920   0.990       .  S
O885        C887   1.283       .  A
O886        C887   1.289       .  A
C887       C3029   1.482       .  S
O888       Zr889   2.441       .  S
O888        H917   0.990       .  S
Zr889       O892   2.438       .  S
Zr889       O893   2.437       .  S
Zr889       O894   2.396       .  S
O890        C895   1.286       .  A
O891        H908   0.990       .  S
O891        H923   0.990       .  S
O892        H909   0.990       .  S
O893        H913   0.990       .  S
O893        H922   0.989       .  S
O894        C895   1.278       .  A
C895       C3178   1.474       .  S
O896        H915   0.991       .  S
O896        H919   0.990       .  S
O897        H911   0.990       .  S
O897        H918   0.990       .  S
O898        C902   1.287       .  A
O899        C902   1.283       .  A
O900        H910   0.990       .  S
O901        H914   0.990       .  S
C902       C3005   1.489       .  S
Zr925       O926   2.442       .  S
Zr925       O927   2.450       .  S
Zr925       O928   2.463       .  S
Zr925       O931   2.430       .  S
Zr925       O933   2.384       .  S
Zr925       O934   2.386       .  S
Zr925       O935   2.407       .  S
Zr925       O936   2.408       .  S
O926        H982   0.990       .  S
O926        H990   0.991       .  S
O927        C947   1.286       .  A
O928        C949   1.288       .  A
O929       Zr939   2.441       .  S
O929        C948   1.286       .  A
O930       Zr938   2.417       .  S
O930        C949   1.280       .  A
O931        C948   1.284       .  A
O932       Zr940   2.410       .  S
O932        C947   1.279       .  A
O933       Zr938   2.396       .  S
O933       Zr940   2.386       .  S
O934       Zr939   2.387       .  S
O934       Zr940   2.373       .  S
O934        H969   0.966       .  S
O935       Zr938   2.400       .  S
O935       Zr955   2.374       .  S
O935        H972   0.963       .  S
O936       Zr939   2.391       .  S
O936       Zr955   2.394       .  S
Zr937       O962   2.440       .  S
Zr937       O956   2.453       .  S
Zr937       O964   2.433       .  S
Zr937       O952   2.453       .  S
Zr937       O943   2.407       .  S
Zr937       O944   2.410       .  S
Zr937       O945   2.375       .  S
Zr937       O946   2.387       .  S
Zr938       O957   2.439       .  S
Zr938       O950   2.435       .  S
Zr938       O951   2.419       .  S
Zr938       O944   2.395       .  S
Zr938       O945   2.394       .  S
Zr939       O941   2.434       .  S
Zr939       O963   2.438       .  S
Zr939       O965   2.424       .  S
Zr939       O943   2.396       .  S
Zr939       O946   2.397       .  S
Zr940       O966   2.435       .  S
Zr940       O967   2.436       .  S
Zr940       O942   2.438       .  S
Zr940       O943   2.392       .  S
Zr940       O944   2.388       .  S
O941        H978   0.990       .  S
O942        H973   0.990       .  S
O942        H987   0.990       .  S
O944        H970   0.965       .  S
O945       Zr955   2.382       .  S
O946       Zr955   2.371       .  S
O946        H971   0.966       .  S
C947       C2957   1.471       .  S
C948       C3202   1.494       .  S
C949       C2909   1.475       .  S
O950        H986   0.990       .  S
O951        C953   1.283       .  A
O952        C953   1.287       .  A
C953       C3514   1.488       .  S
O954       Zr955   2.437       .  S
O954        H983   0.990       .  S
Zr955       O958   2.434       .  S
Zr955       O959   2.439       .  S
Zr955       O960   2.402       .  S
O956        C961   1.286       .  A
O957        H974   0.990       .  S
O957        H989   0.990       .  S
O958        H975   0.990       .  S
O959        H979   0.990       .  S
O959        H988   0.990       .  S
O960        C961   1.278       .  A
C961       C2933   1.478       .  S
O962        H981   0.990       .  S
O962        H985   0.990       .  S
O963        H977   0.990       .  S
O963        H984   0.990       .  S
O964        C968   1.285       .  A
O965        C968   1.284       .  A
O966        H976   0.990       .  S
O967        H980   0.990       .  S
C968       C4306   1.488       .  S
Zr991       O992   2.441       .  S
Zr991       O993   2.461       .  S
Zr991       O994   2.479       .  S
Zr991       O997   2.434       .  S
Zr991       O999   2.384       .  S
Zr991      O1000   2.388       .  S
Zr991      O1001   2.411       .  S
Zr991      O1002   2.414       .  S
O992       H1048   0.990       .  S
O992       H1056   0.990       .  S
O993       C1013   1.288       .  A
O994       C1015   1.292       .  A
O995      Zr1005   2.446       .  S
O995       C1014   1.287       .  A
O996      Zr1004   2.422       .  S
O996       C1015   1.282       .  A
O997       C1014   1.284       .  A
O998      Zr1006   2.406       .  S
O998       C1013   1.278       .  A
O999      Zr1004   2.401       .  S
O999      Zr1006   2.387       .  S
O1000     Zr1005   2.395       .  S
O1000     Zr1006   2.375       .  S
O1000      H1035   0.966       .  S
O1001     Zr1004   2.399       .  S
O1001     Zr1021   2.374       .  S
O1001      H1038   0.964       .  S
O1002     Zr1005   2.392       .  S
O1002     Zr1021   2.394       .  S
Zr1003     O1028   2.441       .  S
Zr1003     O1022   2.453       .  S
Zr1003     O1030   2.448       .  S
Zr1003     O1018   2.460       .  S
Zr1003     O1009   2.407       .  S
Zr1003     O1010   2.411       .  S
Zr1003     O1011   2.378       .  S
Zr1003     O1012   2.391       .  S
Zr1004     O1023   2.437       .  S
Zr1004     O1016   2.436       .  S
Zr1004     O1017   2.424       .  S
Zr1004     O1010   2.397       .  S
Zr1004     O1011   2.394       .  S
Zr1005     O1007   2.435       .  S
Zr1005     O1029   2.437       .  S
Zr1005     O1031   2.439       .  S
Zr1005     O1009   2.394       .  S
Zr1005     O1012   2.399       .  S
Zr1006     O1032   2.435       .  S
Zr1006     O1033   2.435       .  S
Zr1006     O1008   2.437       .  S
Zr1006     O1009   2.391       .  S
Zr1006     O1010   2.377       .  S
O1007      H1044   0.990       .  S
O1008      H1039   0.990       .  S
O1008      H1053   0.990       .  S
O1010      H1036   0.964       .  S
O1011     Zr1021   2.385       .  S
O1012     Zr1021   2.380       .  S
O1012      H1037   0.966       .  S
C1013      C2938   1.481       .  S
C1014      C3058   1.495       .  S
C1015      C2885   1.482       .  S
O1016      H1052   0.990       .  S
O1017      C1019   1.284       .  A
O1018      C1019   1.287       .  A
C1019      C3437   1.487       .  S
O1020     Zr1021   2.441       .  S
O1020      H1049   0.990       .  S
Zr1021     O1024   2.439       .  S
Zr1021     O1025   2.440       .  S
Zr1021     O1026   2.400       .  S
O1022      C1027   1.287       .  A
O1023      H1040   0.990       .  S
O1023      H1055   0.990       .  S
O1024      H1041   0.990       .  S
O1025      H1045   0.990       .  S
O1025      H1054   0.989       .  S
O1026      C1027   1.278       .  A
C1027      C2962   1.487       .  S
O1028      H1047   0.990       .  S
O1028      H1051   0.990       .  S
O1029      H1043   0.990       .  S
O1029      H1050   0.990       .  S
O1030      C1034   1.287       .  A
O1031      C1034   1.287       .  A
O1032      H1042   0.990       .  S
O1033      H1046   0.990       .  S
C1034      C4205   1.492       .  S
Zr1057     O1058   2.443   1_554  S
Zr1057     O1059   2.455   1_554  S
Zr1057     O1060   2.456       .  S
Zr1057     O1063   2.427       .  S
Zr1057     O1065   2.379       .  S
Zr1057     O1066   2.387       .  S
Zr1057     O1067   2.409       .  S
Zr1057     O1068   2.413       .  S
O1058      H1114   0.990       .  S
O1058      H1122   0.991   1_556  S
O1059      C1079   1.287       .  A
O1060      C1081   1.287       .  A
O1061     Zr1071   2.444       .  S
O1061      C1080   1.286       .  A
O1062     Zr1070   2.419       .  S
O1062      C1081   1.281       .  A
O1063      C1080   1.283       .  A
O1064     Zr1072   2.378   1_556  S
O1064      C1079   1.274       .  A
O1065     Zr1070   2.398       .  S
O1065     Zr1072   2.386       .  S
O1066     Zr1071   2.390       .  S
O1066     Zr1072   2.374       .  S
O1066      H1101   0.966   1_554  S
O1067     Zr1070   2.398       .  S
O1067     Zr1087   2.379       .  S
O1067      H1104   0.964       .  S
O1068     Zr1071   2.390       .  S
O1068     Zr1087   2.395       .  S
Zr1069     O1094   2.442       .  S
Zr1069     O1088   2.449       .  S
Zr1069     O1096   2.452       .  S
Zr1069     O1084   2.460       .  S
Zr1069     O1075   2.406       .  S
Zr1069     O1076   2.408       .  S
Zr1069     O1077   2.376       .  S
Zr1069     O1078   2.394       .  S
Zr1070     O1089   2.435       .  S
Zr1070     O1082   2.436       .  S
Zr1070     O1083   2.422       .  S
Zr1070     O1076   2.395       .  S
Zr1070     O1077   2.394       .  S
Zr1071     O1073   2.436       .  S
Zr1071     O1095   2.440       .  S
Zr1071     O1097   2.424       .  S
Zr1071     O1075   2.398       .  S
Zr1071     O1078   2.403       .  S
Zr1072     O1098   2.437   1_554  S
Zr1072     O1099   2.435       .  S
Zr1072     O1074   2.437   1_554  S
Zr1072     O1075   2.382       .  S
Zr1072     O1076   2.373       .  S
O1073      H1110   0.990       .  S
O1074      H1105   0.990       .  S
O1074      H1119   0.990       .  S
O1076      H1102   0.964       .  S
O1077     Zr1087   2.386       .  S
O1078     Zr1087   2.380       .  S
O1078      H1103   0.966       .  S
C1079      C2813   1.488       .  S
C1080      C2866   1.482   1_554  S
C1081      C3077   1.475       .  S
O1082      H1118   0.990       .  S
O1083      C1085   1.283       .  A
O1084      C1085   1.290       .  A
C1085      C2789   1.485       .  S
O1086     Zr1087   2.440       .  S
O1086      H1115   0.990       .  S
Zr1087     O1090   2.439       .  S
Zr1087     O1091   2.440       .  S
Zr1087     O1092   2.405       .  S
O1088      C1093   1.285       .  A
O1089      H1106   0.990       .  S
O1089      H1121   0.990       .  S
O1090      H1107   0.990       .  S
O1091      H1111   0.990       .  S
O1091      H1120   0.990       .  S
O1092      C1093   1.279       .  A
C1093      C2837   1.487       .  S
O1094      H1113   0.989       .  S
O1094      H1117   0.990       .  S
O1095      H1109   0.990       .  S
O1095      H1116   0.990       .  S
O1096      C1100   1.287       .  A
O1097      C1100   1.283       .  A
O1098      H1108   0.990       .  S
O1099      H1112   0.990       .  S
C1100      C2770   1.484       .  S
Zr1123     O1124   2.442       .  S
Zr1123     O1125   2.450       .  S
Zr1123     O1126   2.447       .  S
Zr1123     O1129   2.413       .  S
Zr1123     O1131   2.379       .  S
Zr1123     O1132   2.384       .  S
Zr1123     O1133   2.402       .  S
Zr1123     O1134   2.410       .  S
O1124      H1180   0.990       .  S
O1124      H1188   0.991       .  S
O1125      C1145   1.286       .  A
O1126      C1147   1.286       .  A
O1127     Zr1137   2.450       .  S
O1127      C1146   1.287       .  A
O1128     Zr1136   2.418       .  S
O1128      C1147   1.282       .  A
O1129      C1146   1.281       .  A
O1130     Zr1138   2.407       .  S
O1130      C1145   1.278       .  A
O1131     Zr1136   2.397       .  S
O1131     Zr1138   2.382       .  S
O1132     Zr1137   2.388       .  S
O1132     Zr1138   2.371       .  S
O1132      H1167   0.966       .  S
O1133     Zr1136   2.394       .  S
O1133     Zr1153   2.378       .  S
O1133      H1170   0.964       .  S
O1134     Zr1137   2.386       .  S
O1134     Zr1153   2.394       .  S
Zr1135     O1160   2.441       .  S
Zr1135     O1154   2.450       .  S
Zr1135     O1162   2.441       .  S
Zr1135     O1150   2.466       .  S
Zr1135     O1141   2.405       .  S
Zr1135     O1142   2.411       .  S
Zr1135     O1143   2.376       .  S
Zr1135     O1144   2.394       .  S
Zr1136     O1155   2.436       .  S
Zr1136     O1148   2.434       .  S
Zr1136     O1149   2.414       .  S
Zr1136     O1142   2.401       .  S
Zr1136     O1143   2.389       .  S
Zr1137     O1139   2.435       .  S
Zr1137     O1161   2.437       .  S
Zr1137     O1163   2.436       .  S
Zr1137     O1141   2.395       .  S
Zr1137     O1144   2.398       .  S
Zr1138     O1164   2.436       .  S
Zr1138     O1165   2.435       .  S
Zr1138     O1140   2.437       .  S
Zr1138     O1141   2.388       .  S
Zr1138     O1142   2.384       .  S
O1139      H1176   0.990       .  S
O1140      H1171   0.990       .  S
O1140      H1185   0.990       .  S
O1142      H1168   0.965       .  S
O1143     Zr1153   2.382       .  S
O1144     Zr1153   2.384       .  S
O1144      H1169   0.966       .  S
C1145      C2842   1.471       .  S
C1146      C2741   1.485       .  S
C1147      C2986   1.472       .  S
O1148      H1184   0.990       .  S
O1149      C1151   1.282       .  A
O1150      C1151   1.289       .  A
C1151      C2717   1.488       .  S
O1152     Zr1153   2.440       .  S
O1152      H1181   0.990       .  S
Zr1153     O1156   2.439       .  S
Zr1153     O1157   2.441       .  S
Zr1153     O1158   2.399       .  S
O1154      C1159   1.286       .  A
O1155      H1172   0.990       .  S
O1155      H1187   0.990       .  S
O1156      H1173   0.990       .  S
O1157      H1177   0.990       .  S
O1157      H1186   0.989       .  S
O1158      C1159   1.278       .  A
C1159      C2818   1.478       .  S
O1160      H1179   0.990       .  S
O1160      H1183   0.990       .  S
O1161      H1175   0.990       .  S
O1161      H1182   0.990       .  S
O1162      C1166   1.286       .  A
O1163      C1166   1.286       .  A
O1164      H1174   0.990       .  S
O1165      H1178   0.990       .  S
C1166      C2693   1.487       .  S
Zr1189     O1190   2.443       .  S
Zr1189     O1191   2.466       .  S
Zr1189     O1192   2.466       .  S
Zr1189     O1195   2.421       .  S
Zr1189     O1197   2.382       .  S
Zr1189     O1198   2.383       .  S
Zr1189     O1199   2.409       .  S
Zr1189     O1200   2.416       .  S
O1190      H1246   0.990       .  S
O1190      H1254   0.990       .  S
O1191      C1211   1.289       .  A
O1192      C1213   1.289       .  A
O1193     Zr1203   2.438       .  S
O1193      C1212   1.286       .  A
O1194     Zr1202   2.412       .  S
O1194      C1213   1.280       .  A
O1195      C1212   1.282       .  A
O1196     Zr1204   2.409       .  S
O1196      C1211   1.278       .  A
O1197     Zr1202   2.404       .  S
O1197     Zr1204   2.385       .  S
O1198     Zr1203   2.387       .  S
O1198     Zr1204   2.373       .  S
O1198      H1233   0.965       .  S
O1199     Zr1202   2.400       .  S
O1199     Zr1219   2.383       .  S
O1199      H1236   0.965       .  S
O1200     Zr1203   2.392       .  S
O1200     Zr1219   2.396       .  S
Zr1201     O1226   2.441       .  S
Zr1201     O1220   2.438       .  S
Zr1201     O1228   2.435       .  S
Zr1201     O1216   2.442       .  S
Zr1201     O1207   2.401       .  S
Zr1201     O1208   2.406       .  S
Zr1201     O1209   2.380       .  S
Zr1201     O1210   2.386       .  S
Zr1202     O1221   2.438       .  S
Zr1202     O1214   2.434       .  S
Zr1202     O1215   2.431       .  S
Zr1202     O1208   2.394       .  S
Zr1202     O1209   2.393       .  S
Zr1203     O1205   2.435       .  S
Zr1203     O1227   2.437       .  S
Zr1203     O1229   2.435       .  S
Zr1203     O1207   2.394       .  S
Zr1203     O1210   2.388       .  S
Zr1204     O1230   2.434       .  S
Zr1204     O1231   2.434       .  S
Zr1204     O1206   2.437       .  S
Zr1204     O1207   2.394       .  S
Zr1204     O1208   2.381       .  S
O1205      H1242   0.990       .  S
O1206      H1237   0.990       .  S
O1206      H1251   0.990       .  S
O1208      H1234   0.965       .  S
O1209     Zr1219   2.384       .  S
O1210     Zr1219   2.377       .  S
O1210      H1235   0.966       .  S
C1211      C2645   1.478       .  S
C1212      C2746   1.486       .  S
C1213      C2914   1.482       .  S
O1214      H1250   0.990       .  S
O1215      C1217   1.284       .  A
O1216      C1217   1.285       .  A
C1217      C3317   1.488       .  S
O1218     Zr1219   2.440       .  S
O1218      H1247   0.990       .  S
Zr1219     O1222   2.439       .  S
Zr1219     O1223   2.440       .  S
Zr1219     O1224   2.411       .  S
O1220      C1225   1.284       .  A
O1221      H1238   0.990       .  S
O1221      H1253   0.990       .  S
O1222      H1239   0.990       .  S
O1223      H1243   0.990       .  S
O1223      H1252   0.989       .  S
O1224      C1225   1.279       .  A
C1225      C2674   1.472       .  S
O1226      H1245   0.990       .  S
O1226      H1249   0.990       .  S
O1227      H1241   0.990       .  S
O1227      H1248   0.990       .  S
O1228      C1232   1.286       .  A
O1229      C1232   1.286       .  A
O1230      H1240   0.990       .  S
O1231      H1244   0.990       .  S
C1232      C4085   1.494       .  S
Zr1255     O1256   2.443       .  S
Zr1255     O1257   2.472       .  S
Zr1255     O1258   2.478       .  S
Zr1255     O1261   2.436       .  S
Zr1255     O1263   2.381       .  S
Zr1255     O1264   2.389       .  S
Zr1255     O1265   2.415       .  S
Zr1255     O1266   2.415       .  S
O1256      H1312   0.990       .  S
O1256      H1320   0.991       .  S
O1257      C1277   1.290       .  A
O1258      C1279   1.290       .  A
O1259     Zr1269   2.444       .  S
O1259      C1278   1.286       .  A
O1260     Zr1268   2.411       .  S
O1260      C1279   1.279       .  A
O1261      C1278   1.286       .  A
O1262     Zr1270   2.399       .  S
O1262      C1277   1.279       .  A
O1263     Zr1268   2.397       .  S
O1263     Zr1270   2.384       .  S
O1264     Zr1269   2.387       .  S
O1264     Zr1270   2.377       .  S
O1264      H1299   0.965       .  S
O1265     Zr1268   2.398       .  S
O1265     Zr1285   2.392       .  S
O1265      H1302   0.964       .  S
O1266     Zr1269   2.388       .  S
O1266     Zr1285   2.397       .  S
Zr1267     O1292   2.440       .  S
Zr1267     O1286   2.458       .  S
Zr1267     O1294   2.454       .  S
Zr1267     O1282   2.461       .  S
Zr1267     O1273   2.408       .  S
Zr1267     O1274   2.414       .  S
Zr1267     O1275   2.376       .  S
Zr1267     O1276   2.389       .  S
Zr1268     O1287   2.435       .  S
Zr1268     O1280   2.435       .  S
Zr1268     O1281   2.414       .  S
Zr1268     O1274   2.396       .  S
Zr1268     O1275   2.394       .  S
Zr1269     O1271   2.434       .  S
Zr1269     O1293   2.436       .  S
Zr1269     O1295   2.422       .  S
Zr1269     O1273   2.392       .  S
Zr1269     O1276   2.398       .  S
Zr1270     O1296   2.435       .  S
Zr1270     O1297   2.435       .  S
Zr1270     O1272   2.437       .  S
Zr1270     O1273   2.388       .  S
Zr1270     O1274   2.376       .  S
O1271      H1308   0.990       .  S
O1272      H1303   0.990       .  S
O1272      H1317   0.990       .  S
O1274      H1300   0.964       .  S
O1275     Zr1285   2.380       .  S
O1276     Zr1285   2.376       .  S
O1276      H1301   0.966       .  S
C1277      C2669   1.502       .  S
C1278      C2861   1.487       .  S
C1279      C2890   1.481       .  S
O1280      H1316   0.990       .  S
O1281      C1283   1.281       .  A
O1282      C1283   1.290       .  A
C1283      C3250   1.490       .  S
O1284     Zr1285   2.439       .  S
O1284      H1313   0.990       .  S
Zr1285     O1288   2.437       .  S
Zr1285     O1289   2.441       .  S
Zr1285     O1290   2.419       .  S
O1286      C1291   1.288       .  A
O1287      H1304   0.990       .  S
O1287      H1319   0.990       .  S
O1288      H1305   0.990       .  S
O1289      H1309   0.990       .  S
O1289      H1318   0.990       .  S
O1290      C1291   1.282       .  A
C1291      C2650   1.503       .  S
O1292      H1311   0.990       .  S
O1292      H1315   0.990       .  S
O1293      H1307   0.990       .  S
O1293      H1314   0.989       .  S
O1294      C1298   1.289       .  A
O1295      C1298   1.283       .  A
O1296      H1306   0.990       .  S
O1297      H1310   0.990       .  S
C1298      C4013   1.487       .  S
Zr1321     O1322   2.442       .  S
Zr1321     O1323   2.452       .  S
Zr1321     O1324   2.441       .  S
Zr1321     O1327   2.448       .  S
Zr1321     O1329   2.389       .  S
Zr1321     O1330   2.383       .  S
Zr1321     O1331   2.413       .  S
Zr1321     O1332   2.400       .  S
O1322      H1378   0.990       .  S
O1322      H1386   0.990       .  S
O1323      C1343   1.287       .  A
O1324      C1345   1.284       .  A
O1325     Zr1335   2.420       .  S
O1325      C1344   1.284       .  A
O1326     Zr1334   2.426       .  S
O1326      C1345   1.283       .  A
O1327      C1344   1.286       .  A
O1328     Zr1336   2.401       .  S
O1328      C1343   1.278       .  A
O1329     Zr1334   2.401       .  S
O1329     Zr1336   2.377       .  S
O1330     Zr1335   2.387       .  S
O1330     Zr1336   2.384       .  S
O1330      H1365   0.966       .  S
O1331     Zr1334   2.405       .  S
O1331     Zr1351   2.392       .  S
O1331      H1368   0.966       .  S
O1332     Zr1335   2.381       .  S
O1332     Zr1351   2.383       .  S
Zr1333     O1358   2.440       .  S
Zr1333     O1352   2.441       .  S
Zr1333     O1360   2.464       .  S
Zr1333     O1348   2.450       .  S
Zr1333     O1339   2.394       .  S
Zr1333     O1340   2.413       .  S
Zr1333     O1341   2.383       .  S
Zr1333     O1342   2.390       .  S
Zr1334     O1353   2.438       .  S
Zr1334     O1346   2.433       .  S
Zr1334     O1347   2.442       .  S
Zr1334     O1340   2.399       .  S
Zr1334     O1341   2.387       .  S
Zr1335     O1337   2.436       .  S
Zr1335     O1359   2.437       .  S
Zr1335     O1361   2.414       .  S
Zr1335     O1339   2.387       .  S
Zr1335     O1342   2.393       .  S
Zr1336     O1362   2.434       .  S
Zr1336     O1363   2.435       .  S
Zr1336     O1338   2.437       .  S
Zr1336     O1339   2.383       .  S
Zr1336     O1340   2.392       .  S
O1337      H1374   0.990       .  S
O1338      H1369   0.990       .  S
O1338      H1383   0.990       .  S
O1340      H1366   0.965       .  S
O1341     Zr1351   2.377       .  S
O1342     Zr1351   2.387       .  S
O1342      H1367   0.966       .  S
C1343      C2573   1.479       .  S
C1344      C2765   1.494       .  S
C1345      C2554   1.484       .  S
O1346      H1382   0.990       .  S
O1347      C1349   1.286       .  A
O1348      C1349   1.287       .  A
C1349      C2621   1.507       .  S
O1350     Zr1351   2.439       .  S
O1350      H1379   0.990       .  S
Zr1351     O1354   2.438       .  S
Zr1351     O1355   2.440       .  S
Zr1351     O1356   2.398       .  S
O1352      C1357   1.284       .  A
O1353      H1370   0.990       .  S
O1353      H1385   0.990       .  S
O1354      H1371   0.990       .  S
O1355      H1375   0.990       .  S
O1355      H1384   0.990       .  S
O1356      C1357   1.278       .  A
C1357      C2597   1.486       .  S
O1358      H1377   0.991       .  S
O1358      H1381   0.990       .  S
O1359      H1373   0.990       .  S
O1359      H1380   0.990       .  S
O1360      C1364   1.289       .  A
O1361      C1364   1.281       .  A
O1362      H1372   0.990       .  S
O1363      H1376   0.990       .  S
C1364      C4066   1.477       .  S
Zr1387     O1388   2.441       .  S
Zr1387     O1389   2.446       .  S
Zr1387     O1390   2.456       .  S
Zr1387     O1393   2.465       .  S
Zr1387     O1395   2.389       .  S
Zr1387     O1396   2.388       .  S
Zr1387     O1397   2.413       .  S
Zr1387     O1398   2.394       .  S
O1388      H1444   0.990       .  S
O1388      H1452   0.990       .  S
O1389      C1409   1.285       .  A
O1390      C1411   1.288       .  A
O1391     Zr1401   2.424       .  S
O1391      C1410   1.284       .  A
O1392     Zr1400   2.423       .  S
O1392      C1411   1.282       .  A
O1393      C1410   1.291       .  A
O1394     Zr1402   2.404       .  S
O1394      C1409   1.278       .  A
O1395     Zr1400   2.401       .  S
O1395     Zr1402   2.379       .  S
O1396     Zr1401   2.395       .  S
O1396     Zr1402   2.388       .  S
O1396      H1431   0.966       .  S
O1397     Zr1400   2.406       .  S
O1397     Zr1417   2.392       .  S
O1397      H1434   0.965       .  S
O1398     Zr1401   2.382       .  S
O1398     Zr1417   2.374       .  S
Zr1399     O1424   2.441       .  S
Zr1399     O1418   2.445       .  S
Zr1399     O1426   2.445       .  S
Zr1399     O1414   2.424       .  S
Zr1399     O1405   2.388       .  S
Zr1399     O1406   2.413       .  S
Zr1399     O1407   2.377       .  S
Zr1399     O1408   2.385       .  S
Zr1400     O1419   2.438       .  S
Zr1400     O1412   2.435       .  S
Zr1400     O1413   2.438       .  S
Zr1400     O1406   2.400       .  S
Zr1400     O1407   2.388       .  S
Zr1401     O1403   2.436       .  S
Zr1401     O1425   2.436       .  S
Zr1401     O1427   2.424       .  S
Zr1401     O1405   2.384       .  S
Zr1401     O1408   2.396       .  S
Zr1402     O1428   2.436       .  S
Zr1402     O1429   2.435       .  S
Zr1402     O1404   2.438       .  S
Zr1402     O1405   2.380       .  S
Zr1402     O1406   2.399       .  S
O1403      H1440   0.990       .  S
O1404      H1435   0.990       .  S
O1404      H1449   0.990       .  S
O1406      H1432   0.966       .  S
O1407     Zr1417   2.376       .  S
O1408     Zr1417   2.386       .  S
O1408      H1433   0.966       .  S
C1409      C2602   1.486       .  S
C1410      C2698   1.498       .  S
C1411      C2501   1.495       .  S
O1412      H1448   0.990       .  S
O1413      C1415   1.286       .  A
O1414      C1415   1.281       .  A
C1415      C2525   1.480       .  S
O1416     Zr1417   2.438       .  S
O1416      H1445   0.990       .  S
Zr1417     O1420   2.437       .  S
Zr1417     O1421   2.438       .  S
Zr1417     O1422   2.396       .  S
O1418      C1423   1.285       .  A
O1419      H1436   0.990       .  S
O1419      H1451   0.990       .  S
O1420      H1437   0.990       .  S
O1421      H1441   0.990       .  S
O1421      H1450   0.990       .  S
O1422      C1423   1.278       .  A
C1423      C2578   1.486       .  S
O1424      H1443   0.991       .  S
O1424      H1447   0.990       .  S
O1425      H1439   0.990       .  S
O1425      H1446   0.990       .  S
O1426      C1430   1.285       .  A
O1427      C1430   1.283       .  A
O1428      H1438   0.990       .  S
O1429      H1442   0.990       .  S
C1430      C3994   1.473       .  S
Zr1453     O1454   2.439       .  S
Zr1453     O1455   2.460       .  S
Zr1453     O1456   2.474       .  S
Zr1453     O1459   2.467       .  S
Zr1453     O1461   2.392       .  S
Zr1453     O1462   2.387       .  S
Zr1453     O1463   2.414       .  S
Zr1453     O1464   2.401       .  S
O1454      H1510   0.988       .  S
O1454      H1518   0.990       .  S
O1455      C1475   1.288       .  A
O1456      C1477   1.290       .  A
O1457     Zr1467   2.398       .  S
O1457      C1476   1.279       .  A
O1458     Zr1466   2.405       .  S
O1458      C1477   1.280       .  A
O1459      C1476   1.291       .  A
O1460     Zr1468   2.409       .  S
O1460      C1475   1.281       .  A
O1461     Zr1466   2.399       .  S
O1461     Zr1468   2.376       .  S
O1462     Zr1467   2.390       .  S
O1462     Zr1468   2.383       .  S
O1462      H1497   0.965       .  S
O1463     Zr1466   2.407       .  S
O1463     Zr1483   2.384       .  S
O1463      H1500   0.965       .  S
O1464     Zr1467   2.387       .  S
O1464     Zr1483   2.378       .  S
Zr1465     O1490   2.439       .  S
Zr1465     O1484   2.452       .  S
Zr1465     O1492   2.473       .  S
Zr1465     O1480   2.450       .  S
Zr1465     O1471   2.392       .  S
Zr1465     O1472   2.416       .  S
Zr1465     O1473   2.383       .  S
Zr1465     O1474   2.388       .  S
Zr1466     O1485   2.437       .  S
Zr1466     O1478   2.435       .  S
Zr1466     O1479   2.433       .  S
Zr1466     O1472   2.392       .  S
Zr1466     O1473   2.388       .  S
Zr1467     O1469   2.437       .  S
Zr1467     O1491   2.440       .  S
Zr1467     O1493   2.408       .  S
Zr1467     O1471   2.379       .  S
Zr1467     O1474   2.390       .  S
Zr1468     O1494   2.437       .  S
Zr1468     O1495   2.435       .  S
Zr1468     O1470   2.437       .  S
Zr1468     O1471   2.385       .  S
Zr1468     O1472   2.395       .  S
O1469      H1506   0.990       .  S
O1470      H1501   0.990       .  S
O1470      H1515   0.990       .  S
O1472      H1498   0.965       .  S
O1473     Zr1483   2.381       .  S
O1474     Zr1483   2.389       .  S
O1474      H1499   0.966       .  S
C1475      C2453   1.499       .  S
C1476      C3010   1.490       .  S
C1477      C3773   1.489       .  S
O1478      H1514   0.990       .  S
O1479      C1481   1.285       .  A
O1480      C1481   1.286       .  A
C1481      C2626   1.489       .  S
O1482     Zr1483   2.440       .  S
O1482      H1511   0.991       .  S
Zr1483     O1486   2.438       .  S
Zr1483     O1487   2.440       .  S
Zr1483     O1488   2.390       .  S
O1484      C1489   1.287       .  A
O1485      H1502   0.990       .  S
O1485      H1517   0.990       .  S
O1486      H1503   0.990       .  S
O1487      H1507   0.990       .  S
O1487      H1516   0.990       .  S
O1488      C1489   1.277       .  A
C1489      C2482   1.487       .  S
O1490      H1509   0.991       .  S
O1490      H1513   0.989       .  S
O1491      H1505   0.990       .  S
O1491      H1512   0.990       .  S
O1492      C1496   1.291       .  A
O1493      C1496   1.280       .  A
O1494      H1504   0.990       .  S
O1495      H1508   0.990       .  S
C1496      C4282   1.484       .  S
Zr1519     O1520   2.442   1_556  S
Zr1519     O1521   2.451   1_556  S
Zr1519     O1522   2.470       .  S
Zr1519     O1525   2.451       .  S
Zr1519     O1527   2.386       .  S
Zr1519     O1528   2.388       .  S
Zr1519     O1529   2.413       .  S
Zr1519     O1530   2.403       .  S
O1520      H1576   0.990       .  S
O1520      H1584   0.990   1_554  S
O1521      C1541   1.286       .  A
O1522      C1543   1.289       .  A
O1523     Zr1533   2.410       .  S
O1523      C1542   1.282       .  A
O1524     Zr1532   2.426       .  S
O1524      C1543   1.284       .  A
O1525      C1542   1.288       .  A
O1526     Zr1534   2.400   1_554  S
O1526      C1541   1.278       .  A
O1527     Zr1532   2.402       .  S
O1527     Zr1534   2.382       .  S
O1528     Zr1533   2.390       .  S
O1528     Zr1534   2.387       .  S
O1528      H1563   0.966   1_556  S
O1529     Zr1532   2.403       .  S
O1529     Zr1549   2.396       .  S
O1529      H1566   0.965       .  S
O1530     Zr1533   2.384       .  S
O1530     Zr1549   2.383       .  S
Zr1531     O1556   2.441       .  S
Zr1531     O1550   2.447       .  S
Zr1531     O1558   2.464       .  S
Zr1531     O1546   2.431       .  S
Zr1531     O1537   2.387       .  S
Zr1531     O1538   2.415       .  S
Zr1531     O1539   2.380       .  S
Zr1531     O1540   2.385       .  S
Zr1532     O1551   2.436       .  S
Zr1532     O1544   2.434       .  S
Zr1532     O1545   2.437       .  S
Zr1532     O1538   2.400       .  S
Zr1532     O1539   2.388       .  S
Zr1533     O1535   2.437       .  S
Zr1533     O1557   2.437       .  S
Zr1533     O1559   2.414       .  S
Zr1533     O1537   2.382       .  S
Zr1533     O1540   2.393       .  S
Zr1534     O1560   2.436   1_556  S
Zr1534     O1561   2.435       .  S
Zr1534     O1536   2.437   1_556  S
Zr1534     O1537   2.381       .  S
Zr1534     O1538   2.387       .  S
O1535      H1572   0.990       .  S
O1536      H1567   0.990       .  S
O1536      H1581   0.990       .  S
O1538      H1564   0.965       .  S
O1539     Zr1549   2.375       .  S
O1540     Zr1549   2.386       .  S
O1540      H1565   0.966       .  S
C1541      C2477   1.479       .  S
C1542      C3106   1.485       .  S
C1543      C3874   1.494       .  S
O1544      H1580   0.990       .  S
O1545      C1547   1.285       .  A
O1546      C1547   1.284       .  A
C1547      C2530   1.495       .  S
O1548     Zr1549   2.439       .  S
O1548      H1577   0.990       .  S
Zr1549     O1552   2.437       .  S
Zr1549     O1553   2.439       .  S
Zr1549     O1554   2.411       .  S
O1550      C1555   1.285       .  A
O1551      H1568   0.990       .  S
O1551      H1583   0.990       .  S
O1552      H1569   0.990       .  S
O1553      H1573   0.989       .  S
O1553      H1582   0.990       .  S
O1554      C1555   1.280       .  A
C1555      C2458   1.480       .  S
O1556      H1575   0.990       .  S
O1556      H1579   0.990       .  S
O1557      H1571   0.990       .  S
O1557      H1578   0.990       .  S
O1558      C1562   1.290       .  A
O1559      C1562   1.282       .  A
O1560      H1570   0.990       .  S
O1561      H1574   0.990       .  S
C1562      C4186   1.488       .  S
Zr1585     O1586   2.442       .  S
Zr1585     O1587   2.451       .  S
Zr1585     O1588   2.451       .  S
Zr1585     O1591   2.446       .  S
Zr1585     O1593   2.385       .  S
Zr1585     O1594   2.384       .  S
Zr1585     O1595   2.418       .  S
Zr1585     O1596   2.400       .  S
O1586      H1642   0.990       .  S
O1586      H1650   0.990       .  S
O1587      C1607   1.286       .  A
O1588      C1609   1.287       .  A
O1589     Zr1599   2.431       .  S
O1589      C1608   1.283       .  A
O1590     Zr1598   2.439       .  S
O1590      C1609   1.285       .  A
O1591      C1608   1.286       .  A
O1592     Zr1600   2.410       .  S
O1592      C1607   1.279       .  A
O1593     Zr1598   2.399       .  S
O1593     Zr1600   2.379       .  S
O1594     Zr1599   2.392       .  S
O1594     Zr1600   2.388       .  S
O1594      H1629   0.965       .  S
O1595     Zr1598   2.408       .  S
O1595     Zr1615   2.393       .  S
O1595      H1632   0.964       .  S
O1596     Zr1599   2.379       .  S
O1596     Zr1615   2.382       .  S
Zr1597     O1622   2.440       .  S
Zr1597     O1616   2.453       .  S
Zr1597     O1624   2.456       .  S
Zr1597     O1612   2.447       .  S
Zr1597     O1603   2.390       .  S
Zr1597     O1604   2.417       .  S
Zr1597     O1605   2.377       .  S
Zr1597     O1606   2.392       .  S
Zr1598     O1617   2.438       .  S
Zr1598     O1610   2.435       .  S
Zr1598     O1611   2.443       .  S
Zr1598     O1604   2.400       .  S
Zr1598     O1605   2.392       .  S
Zr1599     O1601   2.437       .  S
Zr1599     O1623   2.440       .  S
Zr1599     O1625   2.416       .  S
Zr1599     O1603   2.386       .  S
Zr1599     O1606   2.401       .  S
Zr1600     O1626   2.437       .  S
Zr1600     O1627   2.437       .  S
Zr1600     O1602   2.439       .  S
Zr1600     O1603   2.382       .  S
Zr1600     O1604   2.405       .  S
O1601      H1638   0.990       .  S
O1602      H1633   0.990       .  S
O1602      H1647   0.990       .  S
O1604      H1630   0.965       .  S
O1605     Zr1615   2.377       .  S
O1606     Zr1615   2.387       .  S
O1606      H1631   0.966       .  S
C1607      C2381   1.484       .  S
C1608      C3802   1.477       .  S
C1609      C3034   1.486       .  S
O1610      H1646   0.990       .  S
O1611      C1613   1.287       .  A
O1612      C1613   1.286       .  A
C1613      C2429   1.493       .  S
O1614     Zr1615   2.440       .  S
O1614      H1643   0.990       .  S
Zr1615     O1618   2.433       .  S
Zr1615     O1619   2.440       .  S
Zr1615     O1620   2.407       .  S
O1616      C1621   1.287       .  A
O1617      H1634   0.990       .  S
O1617      H1649   0.990       .  S
O1618      H1635   0.989       .  S
O1619      H1639   0.990       .  S
O1619      H1648   0.990       .  S
O1620      C1621   1.279       .  A
C1621      C2410   1.487       .  S
O1622      H1641   0.991       .  S
O1622      H1645   0.989       .  S
O1623      H1637   0.990       .  S
O1623      H1644   0.990       .  S
O1624      C1628   1.288       .  A
O1625      C1628   1.282       .  A
O1626      H1636   0.990       .  S
O1627      H1640   0.990       .  S
C1628      C3490   1.477       .  S
Zr1651     O1652   2.442   1_556  S
Zr1651     O1653   2.457   1_556  S
Zr1651     O1654   2.453       .  S
Zr1651     O1657   2.453       .  S
Zr1651     O1659   2.385       .  S
Zr1651     O1660   2.384       .  S
Zr1651     O1661   2.416       .  S
Zr1651     O1662   2.400       .  S
O1652      H1708   0.990       .  S
O1652      H1716   0.990   1_554  S
O1653      C1673   1.287       .  A
O1654      C1675   1.287       .  A
O1655     Zr1665   2.422       .  S
O1655      C1674   1.284       .  A
O1656     Zr1664   2.420       .  S
O1656      C1675   1.281       .  A
O1657      C1674   1.288       .  A
O1658     Zr1666   2.401   1_554  S
O1658      C1673   1.278       .  A
O1659     Zr1664   2.398       .  S
O1659     Zr1666   2.374       .  S
O1660     Zr1665   2.394       .  S
O1660     Zr1666   2.387       .  S
O1660      H1695   0.966   1_556  S
O1661     Zr1664   2.406       .  S
O1661     Zr1681   2.394       .  S
O1661      H1698   0.965       .  S
O1662     Zr1665   2.382       .  S
O1662     Zr1681   2.382       .  S
Zr1663     O1688   2.440       .  S
Zr1663     O1682   2.459       .  S
Zr1663     O1690   2.476       .  S
Zr1663     O1678   2.451       .  S
Zr1663     O1669   2.387       .  S
Zr1663     O1670   2.418       .  S
Zr1663     O1671   2.382       .  S
Zr1663     O1672   2.392       .  S
Zr1664     O1683   2.438       .  S
Zr1664     O1676   2.435       .  S
Zr1664     O1677   2.427       .  S
Zr1664     O1670   2.399       .  S
Zr1664     O1671   2.392       .  S
Zr1665     O1667   2.437       .  S
Zr1665     O1689   2.439       .  S
Zr1665     O1691   2.414       .  S
Zr1665     O1669   2.377       .  S
Zr1665     O1672   2.399       .  S
Zr1666     O1692   2.435   1_556  S
Zr1666     O1693   2.435       .  S
Zr1666     O1668   2.436   1_556  S
Zr1666     O1669   2.373       .  S
Zr1666     O1670   2.399       .  S
O1667      H1704   0.990       .  S
O1668      H1699   0.990       .  S
O1668      H1713   0.990       .  S
O1670      H1696   0.966       .  S
O1671     Zr1681   2.376       .  S
O1672     Zr1681   2.389       .  S
O1672      H1697   0.966       .  S
C1673      C2405   1.487       .  S
C1674      C3893   1.490       .  S
C1675      C3130   1.491       .  S
O1676      H1712   0.990       .  S
O1677      C1679   1.283       .  A
O1678      C1679   1.288       .  A
C1679      C2357   1.502       .  S
O1680     Zr1681   2.439       .  S
O1680      H1709   0.990       .  S
Zr1681     O1684   2.438       .  S
Zr1681     O1685   2.438       .  S
Zr1681     O1686   2.403       .  S
O1682      C1687   1.287       .  A
O1683      H1700   0.990       .  S
O1683      H1715   0.990       .  S
O1684      H1701   0.990       .  S
O1685      H1705   0.990       .  S
O1685      H1714   0.990       .  S
O1686      C1687   1.280       .  A
C1687      C2386   1.492       .  S
O1688      H1707   0.991       .  S
O1688      H1711   0.990       .  S
O1689      H1703   0.990       .  S
O1689      H1710   0.990   1_556  S
O1690      C1694   1.292       .  A
O1691      C1694   1.283       .  A
O1692      H1702   0.990       .  S
O1693      H1706   0.990       .  S
C1694      C3418   1.488       .  S
Zr1717     O1718   2.440       .  S
Zr1717     O1719   2.446       .  S
Zr1717     O1720   2.464       .  S
Zr1717     O1723   2.446       .  S
Zr1717     O1725   2.389       .  S
Zr1717     O1726   2.386       .  S
Zr1717     O1727   2.410       .  S
Zr1717     O1728   2.404       .  S
O1718      H1774   0.990       .  S
O1718      H1782   0.990       .  S
O1719      C1739   1.285       .  A
O1720      C1741   1.288       .  A
O1721     Zr1731   2.415       .  S
O1721      C1740   1.283       .  A
O1722     Zr1730   2.421       .  S
O1722      C1741   1.283       .  A
O1723      C1740   1.286       .  A
O1724     Zr1732   2.403       .  S
O1724      C1739   1.277       .  A
O1725     Zr1730   2.402       .  S
O1725     Zr1732   2.381       .  S
O1726     Zr1731   2.391       .  S
O1726     Zr1732   2.383       .  S
O1726      H1761   0.965       .  S
O1727     Zr1730   2.409       .  S
O1727     Zr1747   2.383       .  S
O1727      H1764   0.964       .  S
O1728     Zr1731   2.385       .  S
O1728     Zr1747   2.379       .  S
Zr1729     O1754   2.441       .  S
Zr1729     O1748   2.451       .  S
Zr1729     O1756   2.465       .  S
Zr1729     O1744   2.450       .  S
Zr1729     O1735   2.394       .  S
Zr1729     O1736   2.415       .  S
Zr1729     O1737   2.379       .  S
Zr1729     O1738   2.392       .  S
Zr1730     O1749   2.432       .  S
Zr1730     O1742   2.433       .  S
Zr1730     O1743   2.435       .  S
Zr1730     O1736   2.396       .  S
Zr1730     O1737   2.387       .  S
Zr1731     O1733   2.437       .  S
Zr1731     O1755   2.440       .  S
Zr1731     O1757   2.417       .  S
Zr1731     O1735   2.382       .  S
Zr1731     O1738   2.391       .  S
Zr1732     O1758   2.438       .  S
Zr1732     O1759   2.434       .  S
Zr1732     O1734   2.436       .  S
Zr1732     O1735   2.379       .  S
Zr1732     O1736   2.397       .  S
O1733      H1770   0.990       .  S
O1734      H1765   0.990       .  S
O1734      H1779   0.990       .  S
O1736      H1762   0.965       .  S
O1737     Zr1747   2.380       .  S
O1738     Zr1747   2.389       .  S
O1738      H1763   0.966       .  S
C1739      C2309   1.473       .  S
C1740      C2285   1.485       .  S
C1741      C2794   1.481       .  S
O1742      H1778   0.990       .  S
O1743      C1745   1.285       .  A
O1744      C1745   1.287       .  A
C1745      C2434   1.498       .  S
O1746     Zr1747   2.440       .  S
O1746      H1775   0.991       .  S
Zr1747     O1750   2.440       .  S
Zr1747     O1751   2.441       .  S
Zr1747     O1752   2.386       .  S
O1748      C1753   1.286       .  A
O1749      H1766   0.989       .  S
O1749      H1781   0.988       .  S
O1750      H1767   0.990       .  S
O1751      H1771   0.990       .  S
O1751      H1780   0.990       .  S
O1752      C1753   1.276       .  A
C1753      C2333   1.483       .  S
O1754      H1773   0.990       .  S
O1754      H1777   0.990       .  S
O1755      H1769   0.990       .  S
O1755      H1776   0.990       .  S
O1756      C1760   1.290       .  A
O1757      C1760   1.283       .  A
O1758      H1768   0.990       .  S
O1759      H1772   0.990       .  S
C1760      C3293   1.485       .  S
Zr1783     O1784   2.442       .  S
Zr1783     O1785   2.449       .  S
Zr1783     O1786   2.457       .  S
Zr1783     O1789   2.436       .  S
Zr1783     O1791   2.383       .  S
Zr1783     O1792   2.382       .  S
Zr1783     O1793   2.410       .  S
Zr1783     O1794   2.407       .  S
O1784      H1840   0.990       .  S
O1784      H1848   0.990       .  S
O1785      C1805   1.285       .  A
O1786      C1807   1.287       .  A
O1787     Zr1797   2.408       .  S
O1787      C1806   1.280       .  A
O1788     Zr1796   2.425       .  S
O1788      C1807   1.283       .  A
O1789      C1806   1.285       .  A
O1790     Zr1798   2.403       .  S
O1790      C1805   1.279       .  A
O1791     Zr1796   2.396       .  S
O1791     Zr1798   2.380       .  S
O1792     Zr1797   2.389       .  S
O1792     Zr1798   2.381       .  S
O1792      H1827   0.966       .  S
O1793     Zr1796   2.403       .  S
O1793     Zr1813   2.389       .  S
O1793      H1830   0.965       .  S
O1794     Zr1797   2.382       .  S
O1794     Zr1813   2.387       .  S
Zr1795     O1820   2.440       .  S
Zr1795     O1814   2.457       .  S
Zr1795     O1822   2.470       .  S
Zr1795     O1810   2.452       .  S
Zr1795     O1801   2.389       .  S
Zr1795     O1802   2.417       .  S
Zr1795     O1803   2.381       .  S
Zr1795     O1804   2.394       .  S
Zr1796     O1815   2.437       .  S
Zr1796     O1808   2.434       .  S
Zr1796     O1809   2.422       .  S
Zr1796     O1802   2.398       .  S
Zr1796     O1803   2.394       .  S
Zr1797     O1799   2.436       .  S
Zr1797     O1821   2.440       .  S
Zr1797     O1823   2.391       .  S
Zr1797     O1801   2.379       .  S
Zr1797     O1804   2.393       .  S
Zr1798     O1824   2.436       .  S
Zr1798     O1825   2.435       .  S
Zr1798     O1800   2.436       .  S
Zr1798     O1801   2.373       .  S
Zr1798     O1802   2.398       .  S
O1799      H1836   0.990       .  S
O1800      H1831   0.990       .  S
O1800      H1845   0.990       .  S
O1802      H1828   0.965       .  S
O1803     Zr1813   2.378       .  S
O1804     Zr1813   2.384       .  S
O1804      H1829   0.966       .  S
C1805      C2338   1.483       .  S
C1806      C2261   1.480       .  S
C1807      C2722   1.490       .  S
O1808      H1844   0.990       .  S
O1809      C1811   1.283       .  A
O1810      C1811   1.287       .  A
C1811      C2362   1.488       .  S
O1812     Zr1813   2.440       .  S
O1812      H1841   0.990       .  S
Zr1813     O1816   2.438       .  S
Zr1813     O1817   2.440       .  S
Zr1813     O1818   2.403       .  S
O1814      C1819   1.287       .  A
O1815      H1832   0.990       .  S
O1815      H1847   0.990       .  S
O1816      H1833   0.990       .  S
O1817      H1837   0.990       .  S
O1817      H1846   0.990       .  S
O1818      C1819   1.280       .  A
C1819      C2314   1.495       .  S
O1820      H1839   0.991       .  S
O1820      H1843   0.989       .  S
O1821      H1835   0.990       .  S
O1821      H1842   0.990       .  S
O1822      C1826   1.291       .  A
O1823      C1826   1.278       .  A
O1824      H1834   0.990       .  S
O1825      H1838   0.990       .  S
C1826      C3221   1.476       .  S
Zr1849     O1850   2.441   1_554  S
Zr1849     O1851   2.458   1_554  S
Zr1849     O1852   2.470       .  S
Zr1849     O1855   2.427       .  S
Zr1849     O1857   2.380       .  S
Zr1849     O1858   2.389       .  S
Zr1849     O1859   2.410       .  S
Zr1849     O1860   2.415       .  S
O1850      H1906   0.990       .  S
O1850      H1914   0.990   1_556  S
O1851      C1871   1.287       .  A
O1852      C1873   1.290       .  A
O1853     Zr1863   2.438       .  S
O1853      C1872   1.284       .  A
O1854     Zr1862   2.408       .  S
O1854      C1873   1.280       .  A
O1855      C1872   1.284       .  A
O1856     Zr1864   2.401   1_556  S
O1856      C1871   1.278       .  A
O1857     Zr1862   2.397       .  S
O1857     Zr1864   2.386       .  S
O1858     Zr1863   2.394       .  S
O1858     Zr1864   2.371       .  S
O1858      H1893   0.966   1_554  S
O1859     Zr1862   2.402       .  S
O1859     Zr1879   2.386       .  S
O1859      H1896   0.964       .  S
O1860     Zr1863   2.390       .  S
O1860     Zr1879   2.397       .  S
Zr1861     O1886   2.440       .  S
Zr1861     O1880   2.447       .  S
Zr1861     O1888   2.426       .  S
Zr1861     O1876   2.464       .  S
Zr1861     O1867   2.410       .  S
Zr1861     O1868   2.406       .  S
Zr1861     O1869   2.374       .  S
Zr1861     O1870   2.394       .  S
Zr1862     O1881   2.435       .  S
Zr1862     O1874   2.434       .  S
Zr1862     O1875   2.413       .  S
Zr1862     O1868   2.396       .  S
Zr1862     O1869   2.390       .  S
Zr1863     O1865   2.435       .  S
Zr1863     O1887   2.438       .  S
Zr1863     O1889   2.419       .  S
Zr1863     O1867   2.395       .  S
Zr1863     O1870   2.397       .  S
Zr1864     O1890   2.436   1_554  S
Zr1864     O1891   2.436       .  S
Zr1864     O1866   2.437   1_554  S
Zr1864     O1867   2.385       .  S
Zr1864     O1868   2.380       .  S
O1865      H1902   0.990       .  S
O1866      H1897   0.990       .  S
O1866      H1911   0.990       .  S
O1868      H1894   0.964       .  S
O1869     Zr1879   2.385       .  S
O1870     Zr1879   2.369       .  S
O1870      H1895   0.966       .  S
C1871      C2194   1.483       .  S
C1872      C2237   1.498   1_554  S
C1873      C3845   1.481       .  S
O1874      H1910   0.990       .  S
O1875      C1877   1.281       .  A
O1876      C1877   1.289       .  A
C1877      C2549   1.486       .  S
O1878     Zr1879   2.437       .  S
O1878      H1907   0.990       .  S
Zr1879     O1882   2.434       .  S
Zr1879     O1883   2.440       .  S
Zr1879     O1884   2.410       .  S
O1880      C1885   1.285       .  A
O1881      H1898   0.990       .  S
O1881      H1913   0.989       .  S
O1882      H1899   0.989       .  S
O1883      H1903   0.990       .  S
O1883      H1912   0.990       .  S
O1884      C1885   1.280       .  A
C1885      C2213   1.478       .  S
O1886      H1905   0.990       .  S
O1886      H1909   0.990       .  S
O1887      H1901   0.990       .  S
O1887      H1908   0.990       .  S
O1888      C1892   1.283       .  A
O1889      C1892   1.284       .  A
O1890      H1900   0.990       .  S
O1891      H1904   0.990       .  S
C1892      C2290   1.480       .  S
Zr1915     O1916   2.442       .  S
Zr1915     O1917   2.457       .  S
Zr1915     O1918   2.472       .  S
Zr1915     O1921   2.434       .  S
Zr1915     O1923   2.383       .  S
Zr1915     O1924   2.387       .  S
Zr1915     O1925   2.416       .  S
Zr1915     O1926   2.415       .  S
O1916      H1972   0.990       .  S
O1916      H1980   0.990       .  S
O1917      C1937   1.287       .  A
O1918      C1939   1.290       .  A
O1919     Zr1929   2.442       .  S
O1919      C1938   1.287       .  A
O1920     Zr1928   2.416       .  S
O1920      C1939   1.280       .  A
O1921      C1938   1.285       .  A
O1922     Zr1930   2.401       .  S
O1922      C1937   1.278       .  A
O1923     Zr1928   2.399       .  S
O1923     Zr1930   2.388       .  S
O1924     Zr1929   2.386       .  S
O1924     Zr1930   2.374       .  S
O1924      H1959   0.966       .  S
O1925     Zr1928   2.399       .  S
O1925     Zr1945   2.381       .  S
O1925      H1962   0.964       .  S
O1926     Zr1929   2.385       .  S
O1926     Zr1945   2.392       .  S
Zr1927     O1952   2.438       .  S
Zr1927     O1946   2.469       .  S
Zr1927     O1954   2.443       .  S
Zr1927     O1942   2.467       .  S
Zr1927     O1933   2.414       .  S
Zr1927     O1934   2.413       .  S
Zr1927     O1935   2.377       .  S
Zr1927     O1936   2.397       .  S
Zr1928     O1947   2.438       .  S
Zr1928     O1940   2.435       .  S
Zr1928     O1941   2.422       .  S
Zr1928     O1934   2.394       .  S
Zr1928     O1935   2.392       .  S
Zr1929     O1931   2.435       .  S
Zr1929     O1953   2.437       .  S
Zr1929     O1955   2.412       .  S
Zr1929     O1933   2.394       .  S
Zr1929     O1936   2.399       .  S
Zr1930     O1956   2.436       .  S
Zr1930     O1957   2.437       .  S
Zr1930     O1932   2.436       .  S
Zr1930     O1933   2.388       .  S
Zr1930     O1934   2.373       .  S
O1931      H1968   0.990       .  S
O1932      H1963   0.990       .  S
O1932      H1977   0.990       .  S
O1934      H1960   0.964       .  S
O1935     Zr1945   2.385       .  S
O1936     Zr1945   2.371       .  S
O1936      H1961   0.966       .  S
C1937      C2218   1.481       .  S
C1938      C2165   1.500       .  S
C1939      C3754   1.479       .  S
O1940      H1976   0.990       .  S
O1941      C1943   1.284       .  A
O1942      C1943   1.290       .  A
C1943      C2506   1.494       .  S
O1944     Zr1945   2.438       .  S
O1944      H1973   0.990       .  S
Zr1945     O1948   2.437       .  S
Zr1945     O1949   2.441       .  S
Zr1945     O1950   2.402       .  S
O1946      C1951   1.290       .  A
O1947      H1964   0.990       .  S
O1947      H1979   0.990       .  S
O1948      H1965   0.990       .  S
O1949      H1969   0.990       .  S
O1949      H1978   0.989       .  S
O1950      C1951   1.279       .  A
C1951      C2189   1.501       .  S
O1952      H1971   0.990       .  S
O1952      H1975   0.989       .  S
O1953      H1967   0.990       .  S
O1953      H1974   0.990       .  S
O1954      C1958   1.287       .  A
O1955      C1958   1.281       .  A
O1956      H1966   0.990       .  S
O1957      H1970   0.990       .  S
C1958      C2266   1.482       .  S
Zr1981     O1982   2.441       .  S
Zr1981     O1983   2.460       .  S
Zr1981     O1984   2.469       .  S
Zr1981     O1987   2.453       .  S
Zr1981     O1989   2.386       .  S
Zr1981     O1990   2.386       .  S
Zr1981     O1991   2.418       .  S
Zr1981     O1992   2.408       .  S
O1982      H2038   0.989       .  S
O1982      H2046   0.990       .  S
O1983      C2003   1.288       .  A
O1984      C2005   1.290       .  A
O1985     Zr1995   2.433       .  S
O1985      C2004   1.284       .  A
O1986     Zr1994   2.405       .  S
O1986      C2005   1.280       .  A
O1987      C2004   1.289       .  A
O1988     Zr1996   2.398       .  S
O1988      C2003   1.279       .  A
O1989     Zr1994   2.398       .  S
O1989     Zr1996   2.379       .  S
O1990     Zr1995   2.390       .  S
O1990     Zr1996   2.378       .  S
O1990      H2025   0.965       .  S
O1991     Zr1994   2.406       .  S
O1991     Zr2011   2.383       .  S
O1991      H2028   0.964       .  S
O1992     Zr1995   2.385       .  S
O1992     Zr2011   2.390       .  S
Zr1993     O2018   2.441       .  S
Zr1993     O2012   2.452       .  S
Zr1993     O2020   2.444       .  S
Zr1993     O2008   2.461       .  S
Zr1993     O1999   2.407       .  S
Zr1993     O2000   2.410       .  S
Zr1993     O2001   2.376       .  S
Zr1993     O2002   2.391       .  S
Zr1994     O2013   2.436       .  S
Zr1994     O2006   2.434       .  S
Zr1994     O2007   2.429       .  S
Zr1994     O2000   2.393       .  S
Zr1994     O2001   2.388       .  S
Zr1995     O1997   2.434       .  S
Zr1995     O2019   2.439       .  S
Zr1995     O2021   2.413       .  S
Zr1995     O1999   2.393       .  S
Zr1995     O2002   2.397       .  S
Zr1996     O2022   2.436       .  S
Zr1996     O2023   2.436       .  S
Zr1996     O1998   2.439       .  S
Zr1996     O1999   2.391       .  S
Zr1996     O2000   2.377       .  S
O1997      H2034   0.990       .  S
O1998      H2029   0.990       .  S
O1998      H2043   0.990       .  S
O2000      H2026   0.964       .  S
O2001     Zr2011   2.385       .  S
O2002     Zr2011   2.378       .  S
O2002      H2027   0.966       .  S
C2003      C2117   1.495       .  S
C2004      C2170   1.505       .  S
C2005      C3653   1.477       .  S
O2006      H2042   0.990       .  S
O2007      C2009   1.284       .  A
O2008      C2009   1.289       .  A
C2009      C4109   1.492       .  S
O2010     Zr2011   2.439       .  S
O2010      H2039   0.990       .  S
Zr2011     O2014   2.435       .  S
Zr2011     O2015   2.440       .  S
Zr2011     O2016   2.409       .  S
O2012      C2017   1.287       .  A
O2013      H2030   0.990       .  S
O2013      H2045   0.989       .  S
O2014      H2031   0.989       .  S
O2015      H2035   0.990       .  S
O2015      H2044   0.989       .  S
O2016      C2017   1.280       .  A
C2017      C2141   1.479       .  S
O2018      H2037   0.990       .  S
O2018      H2041   0.990       .  S
O2019      H2033   0.990       .  S
O2019      H2040   0.990       .  S
O2020      C2024   1.286       .  A
O2021      C2024   1.282       .  A
O2022      H2032   0.990       .  S
O2023      H2036   0.990       .  S
C2024      C3346   1.485       .  S
Zr2047     O2048   2.441       .  S
Zr2047     O2049   2.455       .  S
Zr2047     O2050   2.473       .  S
Zr2047     O2053   2.434       .  S
Zr2047     O2055   2.382       .  S
Zr2047     O2056   2.385       .  S
Zr2047     O2057   2.406       .  S
Zr2047     O2058   2.410       .  S
O2048      H2104   0.990       .  S
O2048      H2112   0.990       .  S
O2049      C2069   1.288       .  A
O2050      C2071   1.290       .  A
O2051     Zr2061   2.424       .  S
O2051      C2070   1.283       .  A
O2052     Zr2060   2.412       .  S
O2052      C2071   1.280       .  A
O2053      C2070   1.286       .  A
O2054     Zr2062   2.414       .  S
O2054      C2069   1.280       .  A
O2055     Zr2060   2.400       .  S
O2055     Zr2062   2.384       .  S
O2056     Zr2061   2.392       .  S
O2056     Zr2062   2.373       .  S
O2056      H2091   0.966       .  S
O2057     Zr2060   2.400       .  S
O2057     Zr2077   2.379       .  S
O2057      H2094   0.964       .  S
O2058     Zr2061   2.391       .  S
O2058     Zr2077   2.393       .  S
Zr2059     O2084   2.441       .  S
Zr2059     O2078   2.440       .  S
Zr2059     O2086   2.437       .  S
Zr2059     O2074   2.438       .  S
Zr2059     O2065   2.404       .  S
Zr2059     O2066   2.411       .  S
Zr2059     O2067   2.373       .  S
Zr2059     O2068   2.383       .  S
Zr2060     O2079   2.437       .  S
Zr2060     O2072   2.435       .  S
Zr2060     O2073   2.420       .  S
Zr2060     O2066   2.396       .  S
Zr2060     O2067   2.392       .  S
Zr2061     O2063   2.434       .  S
Zr2061     O2085   2.438       .  S
Zr2061     O2087   2.428       .  S
Zr2061     O2065   2.388       .  S
Zr2061     O2068   2.392       .  S
Zr2062     O2088   2.435       .  S
Zr2062     O2089   2.436       .  S
Zr2062     O2064   2.436       .  S
Zr2062     O2065   2.394       .  S
Zr2062     O2066   2.382       .  S
O2063      H2100   0.990       .  S
O2064      H2095   0.989       .  S
O2064      H2109   0.990       .  S
O2066      H2092   0.965       .  S
O2067     Zr2077   2.382       .  S
O2068     Zr2077   2.379       .  S
O2068      H2093   0.966       .  S
C2069      C2146   1.493       .  S
C2070      C2242   1.489       .  S
C2071      C3605   1.478       .  S
O2072      H2108   0.990       .  S
O2073      C2075   1.282       .  A
O2074      C2075   1.285       .  A
C2075      C4037   1.484       .  S
O2076     Zr2077   2.442       .  S
O2076      H2105   0.990       .  S
Zr2077     O2080   2.440       .  S
Zr2077     O2081   2.441       .  S
Zr2077     O2082   2.410       .  S
O2078      C2083   1.284       .  A
O2079      H2096   0.990       .  S
O2079      H2111   0.990       .  S
O2080      H2097   0.990       .  S
O2081      H2101   0.990       .  S
O2081      H2110   0.989       .  S
O2082      C2083   1.280       .  A
C2083      C2122   1.479       .  S
O2084      H2103   0.990       .  S
O2084      H2107   0.990       .  S
O2085      H2099   0.990       .  S
O2085      H2106   0.990       .  S
O2086      C2090   1.285       .  A
O2087      C2090   1.284       .  A
O2088      H2098   0.990       .  S
O2089      H2102   0.990       .  S
C2090      C3274   1.482       .  S
C2113      C2114   1.405       .  A
C2113      C2118   1.396       .  A
C2113      C2127   1.445       .  S
C2114      C2119   1.483       .  S
C2114      C2115   1.404       .  A
C2115      C2116   1.404       .  A
C2115      H2134   1.085       .  S
C2116      C2117   1.417       .  A
C2116      C2128   1.443       .  S
C2117      C2118   1.413       .  A
C2118      H2133   1.084       .  S
C2119      C2120   1.400       .  A
C2119      C2124   1.411       .  A
C2120      C2121   1.397       .  A
C2120      H2135   1.085       .  S
C2121      C2122   1.413       .  A
C2121      C2125   1.443       .  S
C2122      C2123   1.406       .  A
C2123      C2124   1.402       .  A
C2123      H2136   1.085       .  S
C2124      C2126   1.444       .  S
C2125      N2129   1.157       .  T
C2126      N2130   1.157       .  T
C2127      N2132   1.157       .  T
C2128      N2131   1.157       .  T
C2137      C2138   1.411       .  A
C2137      C2142   1.402       .  A
C2137      C2151   1.443       .  S
C2138      C2143   1.483       .  S
C2138      C2139   1.401       .  A
C2139      C2140   1.401       .  A
C2139      H2158   1.085       .  S
C2140      C2141   1.415       .  A
C2140      C2152   1.445       .  S
C2141      C2142   1.402       .  A
C2142      H2157   1.085       .  S
C2143      C2144   1.397       .  A
C2143      C2148   1.409       .  A
C2144      C2145   1.399       .  A
C2144      H2159   1.085       .  S
C2145      C2146   1.420   1_554  A
C2145      C2149   1.443   1_554  S
C2146      C2147   1.409       .  A
C2147      C2148   1.405   1_556  A
C2147      H2160   1.085       .  S
C2148      C2150   1.443       .  S
C2149      N2153   1.157       .  T
C2150      N2154   1.157       .  T
C2151      N2156   1.157       .  T
C2152      N2155   1.157       .  T
C2161      C2162   1.409       .  A
C2161      C2166   1.402       .  A
C2161      C2175   1.444       .  S
C2162      C2167   1.492       .  S
C2162      C2163   1.403       .  A
C2163      C2164   1.406       .  A
C2163      H2182   1.085       .  S
C2164      C2165   1.419       .  A
C2164      C2176   1.443       .  S
C2165      C2166   1.411       .  A
C2166      H2181   1.084       .  S
C2167      C2168   1.400       .  A
C2167      C2172   1.409       .  A
C2168      C2169   1.405       .  A
C2168      H2183   1.085       .  S
C2169      C2170   1.424       .  A
C2169      C2173   1.443       .  S
C2170      C2171   1.411       .  A
C2171      C2172   1.404       .  A
C2171      H2184   1.084       .  S
C2172      C2174   1.444       .  S
C2173      N2177   1.157       .  T
C2174      N2178   1.157       .  T
C2175      N2180   1.157       .  T
C2176      N2179   1.157       .  T
C2185      C2186   1.408       .  A
C2185      C2190   1.397       .  A
C2185      C2199   1.445       .  S
C2186      C2191   1.494       .  S
C2186      C2187   1.407       .  A
C2187      C2188   1.409       .  A
C2187      H2206   1.085       .  S
C2188      C2189   1.417       .  A
C2188      C2200   1.442       .  S
C2189      C2190   1.412       .  A
C2190      H2205   1.084       .  S
C2191      C2192   1.407       .  A
C2191      C2196   1.412       .  A
C2192      C2193   1.404       .  A
C2192      H2207   1.085       .  S
C2193      C2194   1.411       .  A
C2193      C2197   1.442       .  S
C2194      C2195   1.405       .  A
C2195      C2196   1.400       .  A
C2195      H2208   1.085       .  S
C2196      C2198   1.443       .  S
C2197      N2201   1.157       .  T
C2198      N2202   1.157       .  T
C2199      N2204   1.157       .  T
C2200      N2203   1.157       .  T
C2209      C2210   1.412       .  A
C2209      C2214   1.403       .  A
C2209      C2223   1.443       .  S
C2210      C2215   1.483       .  S
C2210      C2211   1.400       .  A
C2211      C2212   1.399       .  A
C2211      H2230   1.085       .  S
C2212      C2213   1.414       .  A
C2212      C2224   1.445       .  S
C2213      C2214   1.403       .  A
C2214      H2229   1.085       .  S
C2215      C2216   1.401       .  A
C2215      C2220   1.410       .  A
C2216      C2217   1.402       .  A
C2216      H2231   1.085       .  S
C2217      C2218   1.414       .  A
C2217      C2221   1.444       .  S
C2218      C2219   1.405       .  A
C2219      C2220   1.402       .  A
C2219      H2232   1.085       .  S
C2220      C2222   1.444       .  S
C2221      N2225   1.157       .  T
C2222      N2226   1.157       .  T
C2223      N2228   1.157       .  T
C2224      N2227   1.157       .  T
C2233      C2234   1.405       .  A
C2233      C2238   1.396       .  A
C2233      C2247   1.445       .  S
C2234      C2239   1.483       .  S
C2234      C2235   1.401       .  A
C2235      C2236   1.405       .  A
C2235      H2254   1.085       .  S
C2236      C2237   1.422       .  A
C2236      C2248   1.443   1_556  S
C2237      C2238   1.411       .  A
C2238      H2253   1.083       .  S
C2239      C2240   1.400       .  A
C2239      C2244   1.408       .  A
C2240      C2241   1.403       .  A
C2240      H2255   1.085       .  S
C2241      C2242   1.419       .  A
C2241      C2245   1.444       .  S
C2242      C2243   1.408       .  A
C2243      C2244   1.397       .  A
C2243      H2256   1.085       .  S
C2244      C2246   1.444       .  S
C2245      N2249   1.157       .  T
C2246      N2250   1.157       .  T
C2247      N2252   1.157       .  T
C2248      N2251   1.157       .  T
C2257      C2258   1.408       .  A
C2257      C2262   1.397       .  A
C2257      C2271   1.444       .  S
C2258      C2263   1.478       .  S
C2258      C2259   1.401       .  A
C2259      C2260   1.397       .  A
C2259      H2278   1.085       .  S
C2260      C2261   1.414       .  A
C2260      C2272   1.443       .  S
C2261      C2262   1.408       .  A
C2262      H2277   1.085       .  S
C2263      C2264   1.402   1_565  A
C2263      C2268   1.408   1_565  A
C2264      C2265   1.397       .  A
C2264      H2279   1.085       .  S
C2265      C2266   1.413       .  A
C2265      C2269   1.442       .  S
C2266      C2267   1.409       .  A
C2267      C2268   1.398       .  A
C2267      H2280   1.085       .  S
C2268      C2270   1.444   1_545  S
C2269      N2273   1.157       .  T
C2270      N2274   1.157       .  T
C2271      N2276   1.157       .  T
C2272      N2275   1.157       .  T
C2281      C2282   1.406       .  A
C2281      C2286   1.393       .  A
C2281      C2295   1.445       .  S
C2282      C2287   1.479   1_565  S
C2282      C2283   1.402       .  A
C2283      C2284   1.402       .  A
C2283      H2302   1.085       .  S
C2284      C2285   1.416       .  A
C2284      C2296   1.443       .  S
C2285      C2286   1.408       .  A
C2286      H2301   1.085       .  S
C2287      C2288   1.402       .  A
C2287      C2292   1.408       .  A
C2288      C2289   1.399       .  A
C2288      H2303   1.085       .  S
C2289      C2290   1.416       .  A
C2289      C2293   1.445       .  S
C2290      C2291   1.406       .  A
C2291      C2292   1.396       .  A
C2291      H2304   1.085       .  S
C2292      C2294   1.444   1_545  S
C2293      N2297   1.158       .  T
C2294      N2298   1.157       .  T
C2295      N2300   1.157       .  T
C2296      N2299   1.157       .  T
C2305      C2306   1.408       .  A
C2305      C2310   1.399   1_556  A
C2305      C2319   1.443       .  S
C2306      C2311   1.480       .  S
C2306      C2307   1.403       .  A
C2307      C2308   1.401   1_556  A
C2307      H2326   1.085       .  S
C2308      C2309   1.412       .  A
C2308      C2320   1.445       .  S
C2309      C2310   1.403       .  A
C2310      H2325   1.085       .  S
C2311      C2312   1.404       .  A
C2311      C2316   1.402       .  A
C2312      C2313   1.407       .  A
C2312      H2327   1.085       .  S
C2313      C2314   1.418       .  A
C2313      C2317   1.443       .  S
C2314      C2315   1.412       .  A
C2315      C2316   1.394       .  A
C2315      H2328   1.084       .  S
C2316      C2318   1.445       .  S
C2317      N2321   1.157       .  T
C2318      N2322   1.157       .  T
C2319      N2324   1.157       .  T
C2320      N2323   1.157       .  T
C2329      C2330   1.405       .  A
C2329      C2334   1.393       .  A
C2329      C2343   1.445       .  S
C2330      C2335   1.481       .  S
C2330      C2331   1.406       .  A
C2331      C2332   1.404       .  A
C2331      H2350   1.085       .  S
C2332      C2333   1.413       .  A
C2332      C2344   1.444       .  S
C2333      C2334   1.409       .  A
C2334      H2349   1.085       .  S
C2335      C2336   1.403       .  A
C2335      C2340   1.406       .  A
C2336      C2337   1.401       .  A
C2336      H2351   1.085       .  S
C2337      C2338   1.416       .  A
C2337      C2341   1.444       .  S
C2338      C2339   1.408       .  A
C2339      C2340   1.397       .  A
C2339      H2352   1.085       .  S
C2340      C2342   1.444       .  S
C2341      N2345   1.158       .  T
C2342      N2346   1.157       .  T
C2343      N2348   1.157       .  T
C2344      N2347   1.157       .  T
C2353      C2354   1.407       .  A
C2353      C2358   1.401       .  A
C2353      C2367   1.444       .  S
C2354      C2359   1.487       .  S
C2354      C2355   1.400       .  A
C2355      C2356   1.404       .  A
C2355      H2374   1.085       .  S
C2356      C2357   1.424       .  A
C2356      C2368   1.444       .  S
C2357      C2358   1.411       .  A
C2358      H2373   1.084       .  S
C2359      C2360   1.402       .  A
C2359      C2364   1.409       .  A
C2360      C2361   1.400       .  A
C2360      H2375   1.085       .  S
C2361      C2362   1.415       .  A
C2361      C2365   1.443       .  S
C2362      C2363   1.409       .  A
C2363      C2364   1.403       .  A
C2363      H2376   1.085       .  S
C2364      C2366   1.444       .  S
C2365      N2369   1.157       .  T
C2366      N2370   1.157       .  T
C2367      N2372   1.157       .  T
C2368      N2371   1.157       .  T
C2377      C2378   1.409       .  A
C2377      C2382   1.402       .  A
C2377      C2391   1.444       .  S
C2378      C2383   1.487       .  S
C2378      C2379   1.403       .  A
C2379      C2380   1.400       .  A
C2379      H2398   1.085       .  S
C2380      C2381   1.415       .  A
C2380      C2392   1.445       .  S
C2381      C2382   1.408       .  A
C2382      H2397   1.085       .  S
C2383      C2384   1.406       .  A
C2383      C2388   1.406       .  A
C2384      C2385   1.408       .  A
C2384      H2399   1.085       .  S
C2385      C2386   1.416       .  A
C2385      C2389   1.442       .  S
C2386      C2387   1.409       .  A
C2387      C2388   1.394       .  A
C2387      H2400   1.085       .  S
C2388      C2390   1.445       .  S
C2389      N2393   1.157       .  T
C2390      N2394   1.157       .  T
C2391      N2396   1.157       .  T
C2392      N2395   1.157       .  T
C2401      C2402   1.409       .  A
C2401      C2406   1.403       .  A
C2401      C2415   1.443       .  S
C2402      C2407   1.482       .  S
C2402      C2403   1.398       .  A
C2403      C2404   1.399       .  A
C2403      H2422   1.085       .  S
C2404      C2405   1.419       .  A
C2404      C2416   1.444       .  S
C2405      C2406   1.407       .  A
C2406      H2421   1.085       .  S
C2407      C2408   1.397       .  A
C2407      C2412   1.410       .  A
C2408      C2409   1.399       .  A
C2408      H2423   1.085       .  S
C2409      C2410   1.419       .  A
C2409      C2413   1.444       .  S
C2410      C2411   1.405       .  A
C2411      C2412   1.404       .  A
C2411      H2424   1.084       .  S
C2412      C2414   1.443       .  S
C2413      N2417   1.157       .  T
C2414      N2418   1.157       .  T
C2415      N2420   1.157       .  T
C2416      N2419   1.157       .  T
C2425      C2426   1.413       .  A
C2425      C2430   1.404       .  A
C2425      C2439   1.443       .  S
C2426      C2431   1.499       .  S
C2426      C2427   1.406       .  A
C2427      C2428   1.406       .  A
C2427      H2446   1.085       .  S
C2428      C2429   1.417       .  A
C2428      C2440   1.444       .  S
C2429      C2430   1.406       .  A
C2430      H2445   1.085       .  S
C2431      C2432   1.406       .  A
C2431      C2436   1.412       .  A
C2432      C2433   1.408       .  A
C2432      H2447   1.085       .  S
C2433      C2434   1.419       .  A
C2433      C2437   1.444       .  S
C2434      C2435   1.407       .  A
C2435      C2436   1.401       .  A
C2435      H2448   1.084       .  S
C2436      C2438   1.443       .  S
C2437      N2441   1.157       .  T
C2438      N2442   1.157       .  T
C2439      N2444   1.157       .  T
C2440      N2443   1.157       .  T
C2449      C2450   1.407       .  A
C2449      C2454   1.399       .  A
C2449      C2463   1.445       .  S
C2450      C2455   1.489       .  S
C2450      C2451   1.403       .  A
C2451      C2452   1.404       .  A
C2451      H2470   1.085       .  S
C2452      C2453   1.418       .  A
C2452      C2464   1.441       .  S
C2453      C2454   1.414       .  A
C2454      H2469   1.084       .  S
C2455      C2456   1.403       .  A
C2455      C2460   1.413       .  A
C2456      C2457   1.401       .  A
C2456      H2471   1.085       .  S
C2457      C2458   1.412       .  A
C2457      C2461   1.444       .  S
C2458      C2459   1.405       .  A
C2459      C2460   1.403       .  A
C2459      H2472   1.085       .  S
C2460      C2462   1.445       .  S
C2461      N2465   1.157       .  T
C2462      N2466   1.157       .  T
C2463      N2468   1.157       .  T
C2464      N2467   1.157       .  T
C2473      C2474   1.408       .  A
C2473      C2478   1.398       .  A
C2473      C2487   1.445       .  S
C2474      C2479   1.481       .  S
C2474      C2475   1.403       .  A
C2475      C2476   1.401       .  A
C2475      H2494   1.085       .  S
C2476      C2477   1.414       .  A
C2476      C2488   1.445       .  S
C2477      C2478   1.406       .  A
C2478      H2493   1.085       .  S
C2479      C2480   1.404       .  A
C2479      C2484   1.406       .  A
C2480      C2481   1.403       .  A
C2480      H2495   1.085       .  S
C2481      C2482   1.414       .  A
C2481      C2485   1.443       .  S
C2482      C2483   1.410       .  A
C2483      C2484   1.395       .  A
C2483      H2496   1.085       .  S
C2484      C2486   1.445       .  S
C2485      N2489   1.157       .  T
C2486      N2490   1.157       .  T
C2487      N2492   1.157       .  T
C2488      N2491   1.157       .  T
C2497      C2498   1.411       .  A
C2497      C2502   1.401       .  A
C2497      C2511   1.443       .  S
C2498      C2503   1.495       .  S
C2498      C2499   1.405       .  A
C2499      C2500   1.401       .  A
C2499      H2518   1.085       .  S
C2500      C2501   1.419       .  A
C2500      C2512   1.444       .  S
C2501      C2502   1.409       .  A
C2502      H2517   1.084       .  S
C2503      C2504   1.407       .  A
C2503      C2508   1.410       .  A
C2504      C2505   1.408       .  A
C2504      H2519   1.084       .  S
C2505      C2506   1.416       .  A
C2505      C2509   1.442       .  S
C2506      C2507   1.410       .  A
C2507      C2508   1.396       .  A
C2507      H2520   1.084       .  S
C2508      C2510   1.445       .  S
C2509      N2513   1.157       .  T
C2510      N2514   1.157       .  T
C2511      N2516   1.157       .  T
C2512      N2515   1.157       .  T
C2521      C2522   1.410       .  A
C2521      C2526   1.401       .  A
C2521      C2535   1.443       .  S
C2522      C2527   1.484       .  S
C2522      C2523   1.401       .  A
C2523      C2524   1.399       .  A
C2523      H2542   1.085       .  S
C2524      C2525   1.416       .  A
C2524      C2536   1.444       .  S
C2525      C2526   1.403       .  A
C2526      H2541   1.085       .  S
C2527      C2528   1.401       .  A
C2527      C2532   1.408       .  A
C2528      C2529   1.401       .  A
C2528      H2543   1.085       .  S
C2529      C2530   1.419       .  A
C2529      C2533   1.443       .  S
C2530      C2531   1.411       .  A
C2531      C2532   1.399       .  A
C2531      H2544   1.084       .  S
C2532      C2534   1.445       .  S
C2533      N2537   1.157       .  T
C2534      N2538   1.157       .  T
C2535      N2540   1.157       .  T
C2536      N2539   1.157       .  T
C2545      C2546   1.409       .  A
C2545      C2550   1.398       .  A
C2545      C2559   1.445       .  S
C2546      C2551   1.489       .  S
C2546      C2547   1.406       .  A
C2547      C2548   1.404       .  A
C2547      H2566   1.085       .  S
C2548      C2549   1.413       .  A
C2548      C2560   1.443       .  S
C2549      C2550   1.409       .  A
C2550      H2565   1.085       .  S
C2551      C2552   1.405       .  A
C2551      C2556   1.411       .  A
C2552      C2553   1.402       .  A
C2552      H2567   1.085       .  S
C2553      C2554   1.414       .  A
C2553      C2557   1.444       .  S
C2554      C2555   1.406       .  A
C2555      C2556   1.399       .  A
C2555      H2568   1.084       .  S
C2556      C2558   1.444       .  S
C2557      N2561   1.157       .  T
C2558      N2562   1.157       .  T
C2559      N2564   1.157       .  T
C2560      N2563   1.157       .  T
C2569      C2570   1.406       .  A
C2569      C2574   1.398   1_556  A
C2569      C2583   1.444       .  S
C2570      C2575   1.479       .  S
C2570      C2571   1.403       .  A
C2571      C2572   1.401   1_556  A
C2571      H2590   1.085       .  S
C2572      C2573   1.413       .  A
C2572      C2584   1.443       .  S
C2573      C2574   1.407       .  A
C2574      H2589   1.085       .  S
C2575      C2576   1.405       .  A
C2575      C2580   1.404       .  A
C2576      C2577   1.406       .  A
C2576      H2591   1.084       .  S
C2577      C2578   1.415       .  A
C2577      C2581   1.444       .  S
C2578      C2579   1.409       .  A
C2579      C2580   1.393       .  A
C2579      H2592   1.085       .  S
C2580      C2582   1.445       .  S
C2581      N2585   1.157       .  T
C2582      N2586   1.157       .  T
C2583      N2588   1.157       .  T
C2584      N2587   1.157       .  T
C2593      C2594   1.408       .  A
C2593      C2598   1.393       .  A
C2593      C2607   1.445       .  S
C2594      C2599   1.485       .  S
C2594      C2595   1.406       .  A
C2595      C2596   1.404       .  A
C2595      H2614   1.085       .  S
C2596      C2597   1.415       .  A
C2596      C2608   1.444       .  S
C2597      C2598   1.408       .  A
C2598      H2613   1.085       .  S
C2599      C2600   1.404       .  A
C2599      C2604   1.408       .  A
C2600      C2601   1.399       .  A
C2600      H2615   1.085       .  S
C2601      C2602   1.415       .  A
C2601      C2605   1.444       .  S
C2602      C2603   1.409       .  A
C2603      C2604   1.399       .  A
C2603      H2616   1.085       .  S
C2604      C2606   1.445       .  S
C2605      N2609   1.157       .  T
C2606      N2610   1.157       .  T
C2607      N2612   1.157       .  T
C2608      N2611   1.157       .  T
C2617      C2618   1.409       .  A
C2617      C2622   1.404       .  A
C2617      C2631   1.444       .  S
C2618      C2623   1.493       .  S
C2618      C2619   1.401       .  A
C2619      C2620   1.406       .  A
C2619      H2638   1.085       .  S
C2620      C2621   1.423       .  A
C2620      C2632   1.443       .  S
C2621      C2622   1.413       .  A
C2622      H2637   1.084       .  S
C2623      C2624   1.405       .  A
C2623      C2628   1.411       .  A
C2624      C2625   1.405       .  A
C2624      H2639   1.085       .  S
C2625      C2626   1.416       .  A
C2625      C2629   1.444       .  S
C2626      C2627   1.406       .  A
C2627      C2628   1.403       .  A
C2627      H2640   1.085       .  S
C2628      C2630   1.443       .  S
C2629      N2633   1.157       .  T
C2630      N2634   1.157       .  T
C2631      N2636   1.157       .  T
C2632      N2635   1.157       .  T
C2641      C2642   1.415       .  A
C2641      C2646   1.405       .  A
C2641      C2655   1.443       .  S
C2642      C2647   1.498       .  S
C2642      C2643   1.406       .  A
C2643      C2644   1.404       .  A
C2643      H2662   1.085       .  S
C2644      C2645   1.412       .  A
C2644      C2656   1.445       .  S
C2645      C2646   1.401       .  A
C2646      H2661   1.085       .  S
C2647      C2648   1.406       .  A
C2647      C2652   1.410       .  A
C2648      C2649   1.408       .  A
C2648      H2663   1.085       .  S
C2649      C2650   1.420       .  A
C2649      C2653   1.443       .  S
C2650      C2651   1.412       .  A
C2651      C2652   1.402       .  A
C2651      H2664   1.084       .  S
C2652      C2654   1.444       .  S
C2653      N2657   1.157       .  T
C2654      N2658   1.157       .  T
C2655      N2660   1.157       .  T
C2656      N2659   1.157       .  T
C2665      C2666   1.405       .  A
C2665      C2670   1.398       .  A
C2665      C2679   1.445       .  S
C2666      C2671   1.486       .  S
C2666      C2667   1.403       .  A
C2667      C2668   1.406       .  A
C2667      H2686   1.085       .  S
C2668      C2669   1.419   1_554  A
C2668      C2680   1.442   1_554  S
C2669      C2670   1.415   1_556  A
C2670      H2685   1.084   1_554  S
C2671      C2672   1.404       .  A
C2671      C2676   1.412       .  A
C2672      C2673   1.402       .  A
C2672      H2687   1.085       .  S
C2673      C2674   1.411       .  A
C2673      C2677   1.445       .  S
C2674      C2675   1.401       .  A
C2675      C2676   1.399       .  A
C2675      H2688   1.085       .  S
C2676      C2678   1.443       .  S
C2677      N2681   1.157       .  T
C2678      N2682   1.157       .  T
C2679      N2684   1.157       .  T
C2680      N2683   1.157       .  T
C2689      C2690   1.411       .  A
C2689      C2694   1.404       .  A
C2689      C2703   1.443       .  S
C2690      C2695   1.489   1_565  S
C2690      C2691   1.402       .  A
C2691      C2692   1.402       .  A
C2691      H2710   1.085   1_565  S
C2692      C2693   1.415       .  A
C2692      C2704   1.444       .  S
C2693      C2694   1.406       .  A
C2694      H2709   1.085       .  S
C2695      C2696   1.399       .  A
C2695      C2700   1.410       .  A
C2696      C2697   1.400       .  A
C2696      H2711   1.085       .  S
C2697      C2698   1.421       .  A
C2697      C2701   1.444       .  S
C2698      C2699   1.411       .  A
C2699      C2700   1.408       .  A
C2699      H2712   1.084       .  S
C2700      C2702   1.444       .  S
C2701      N2705   1.157       .  T
C2702      N2706   1.157       .  T
C2703      N2708   1.157       .  T
C2704      N2707   1.157       .  T
C2713      C2714   1.410       .  A
C2713      C2718   1.397       .  A
C2713      C2727   1.445       .  S
C2714      C2719   1.493       .  S
C2714      C2715   1.408       .  A
C2715      C2716   1.408       .  A
C2715      H2734   1.084       .  S
C2716      C2717   1.413       .  A
C2716      C2728   1.443       .  S
C2717      C2718   1.407       .  A
C2718      H2733   1.085       .  S
C2719      C2720   1.405       .  A
C2719      C2724   1.410       .  A
C2720      C2721   1.403       .  A
C2720      H2735   1.085       .  S
C2721      C2722   1.416       .  A
C2721      C2725   1.444       .  S
C2722      C2723   1.408       .  A
C2723      C2724   1.402       .  A
C2723      H2736   1.084       .  S
C2724      C2726   1.444       .  S
C2725      N2729   1.157       .  T
C2726      N2730   1.157       .  T
C2727      N2732   1.157       .  T
C2728      N2731   1.157       .  T
C2737      C2738   1.410       .  A
C2737      C2742   1.403       .  A
C2737      C2751   1.443       .  S
C2738      C2743   1.482       .  S
C2738      C2739   1.399       .  A
C2739      C2740   1.398       .  A
C2739      H2758   1.085       .  S
C2740      C2741   1.418       .  A
C2740      C2752   1.444       .  S
C2741      C2742   1.406       .  A
C2742      H2757   1.084       .  S
C2743      C2744   1.400       .  A
C2743      C2748   1.408       .  A
C2744      C2745   1.399       .  A
C2744      H2759   1.085       .  S
C2745      C2746   1.419       .  A
C2745      C2749   1.445       .  S
C2746      C2747   1.407       .  A
C2747      C2748   1.401       .  A
C2747      H2760   1.085       .  S
C2748      C2750   1.443       .  S
C2749      N2753   1.157       .  T
C2750      N2754   1.157       .  T
C2751      N2756   1.157       .  T
C2752      N2755   1.157       .  T
C2761      C2762   1.408       .  A
C2761      C2766   1.395       .  A
C2761      C2775   1.445       .  S
C2762      C2767   1.488   1_545  S
C2762      C2763   1.404       .  A
C2763      C2764   1.406       .  A
C2763      H2782   1.085       .  S
C2764      C2765   1.419       .  A
C2764      C2776   1.443       .  S
C2765      C2766   1.409       .  A
C2766      H2781   1.084       .  S
C2767      C2768   1.403       .  A
C2767      C2772   1.410       .  A
C2768      C2769   1.399       .  A
C2768      H2783   1.085       .  S
C2769      C2770   1.412       .  A
C2769      C2773   1.444       .  S
C2770      C2771   1.408       .  A
C2771      C2772   1.404       .  A
C2771      H2784   1.085       .  S
C2772      C2774   1.445   1_565  S
C2773      N2777   1.157       .  T
C2774      N2778   1.157       .  T
C2775      N2780   1.157       .  T
C2776      N2779   1.157       .  T
C2785      C2786   1.411       .  A
C2785      C2790   1.402       .  A
C2785      C2799   1.444       .  S
C2786      C2791   1.486       .  S
C2786      C2787   1.401       .  A
C2787      C2788   1.401       .  A
C2787      H2806   1.085       .  S
C2788      C2789   1.416       .  A
C2788      C2800   1.444       .  S
C2789      C2790   1.407       .  A
C2790      H2805   1.085       .  S
C2791      C2792   1.398       .  A
C2791      C2796   1.413       .  A
C2792      C2793   1.397       .  A
C2792      H2807   1.085       .  S
C2793      C2794   1.416       .  A
C2793      C2797   1.443       .  S
C2794      C2795   1.404       .  A
C2795      C2796   1.406       .  A
C2795      H2808   1.085       .  S
C2796      C2798   1.443       .  S
C2797      N2801   1.157       .  T
C2798      N2802   1.157       .  T
C2799      N2804   1.157       .  T
C2800      N2803   1.157       .  T
C2809      C2810   1.406       .  A
C2809      C2814   1.394       .  A
C2809      C2823   1.445       .  S
C2810      C2815   1.483       .  S
C2810      C2811   1.405       .  A
C2811      C2812   1.402       .  A
C2811      H2830   1.085       .  S
C2812      C2813   1.414       .  A
C2812      C2824   1.443       .  S
C2813      C2814   1.412       .  A
C2814      H2829   1.085       .  S
C2815      C2816   1.406       .  A
C2815      C2820   1.408       .  A
C2816      C2817   1.402       .  A
C2816      H2831   1.085       .  S
C2817      C2818   1.411       .  A
C2817      C2821   1.443       .  S
C2818      C2819   1.406       .  A
C2819      C2820   1.396       .  A
C2819      H2832   1.085       .  S
C2820      C2822   1.445       .  S
C2821      N2825   1.157       .  T
C2822      N2826   1.157       .  T
C2823      N2828   1.157       .  T
C2824      N2827   1.157       .  T
C2833      C2834   1.408       .  A
C2833      C2838   1.398       .  A
C2833      C2847   1.444       .  S
C2834      C2839   1.486       .  S
C2834      C2835   1.405       .  A
C2835      C2836   1.406       .  A
C2835      H2854   1.085       .  S
C2836      C2837   1.416       .  A
C2836      C2848   1.445       .  S
C2837      C2838   1.407       .  A
C2838      H2853   1.085       .  S
C2839      C2840   1.402       .  A
C2839      C2844   1.413       .  A
C2840      C2841   1.398       .  A
C2840      H2855   1.085       .  S
C2841      C2842   1.411       .  A
C2841      C2845   1.445       .  S
C2842      C2843   1.401       .  A
C2843      C2844   1.404       .  A
C2843      H2856   1.085       .  S
C2844      C2846   1.443       .  S
C2845      N2849   1.157       .  T
C2846      N2850   1.157       .  T
C2847      N2852   1.157       .  T
C2848      N2851   1.158       .  T
C2857      C2858   1.411       .  A
C2857      C2862   1.401       .  A
C2857      C2871   1.444       .  S
C2858      C2863   1.491       .  S
C2858      C2859   1.405       .  A
C2859      C2860   1.404       .  A
C2859      H2878   1.085       .  S
C2860      C2861   1.415       .  A
C2860      C2872   1.443       .  S
C2861      C2862   1.406       .  A
C2862      H2877   1.085       .  S
C2863      C2864   1.404       .  A
C2863      C2868   1.412       .  A
C2864      C2865   1.401       .  A
C2864      H2879   1.085       .  S
C2865      C2866   1.414       .  A
C2865      C2869   1.444   1_556  S
C2866      C2867   1.404       .  A
C2867      C2868   1.403       .  A
C2867      H2880   1.085       .  S
C2868      C2870   1.443       .  S
C2869      N2873   1.157       .  T
C2870      N2874   1.157       .  T
C2871      N2876   1.157       .  T
C2872      N2875   1.157       .  T
C2881      C2882   1.413       .  A
C2881      C2886   1.405       .  A
C2881      C2895   1.444       .  S
C2882      C2887   1.497       .  S
C2882      C2883   1.407       .  A
C2883      C2884   1.405       .  A
C2883      H2902   1.085       .  S
C2884      C2885   1.410       .  A
C2884      C2896   1.443       .  S
C2885      C2886   1.406       .  A
C2886      H2901   1.085       .  S
C2887      C2888   1.407       .  A
C2887      C2892   1.414       .  A
C2888      C2889   1.404       .  A
C2888      H2903   1.085       .  S
C2889      C2890   1.411       .  A
C2889      C2893   1.444       .  S
C2890      C2891   1.404       .  A
C2891      C2892   1.404       .  A
C2891      H2904   1.085       .  S
C2892      C2894   1.443       .  S
C2893      N2897   1.157       .  T
C2894      N2898   1.157       .  T
C2895      N2900   1.157       .  T
C2896      N2899   1.157       .  T
C2905      C2906   1.414       .  A
C2905      C2910   1.401       .  A
C2905      C2919   1.444       .  S
C2906      C2911   1.496       .  S
C2906      C2907   1.409       .  A
C2907      C2908   1.403       .  A
C2907      H2926   1.085       .  S
C2908      C2909   1.407       .  A
C2908      C2920   1.443       .  S
C2909      C2910   1.404       .  A
C2910      H2925   1.086       .  S
C2911      C2912   1.407       .  A
C2911      C2916   1.414       .  A
C2912      C2913   1.403       .  A
C2912      H2927   1.085       .  S
C2913      C2914   1.413       .  A
C2913      C2917   1.445       .  S
C2914      C2915   1.405       .  A
C2915      C2916   1.402       .  A
C2915      H2928   1.085       .  S
C2916      C2918   1.444       .  S
C2917      N2921   1.157       .  T
C2918      N2922   1.157       .  T
C2919      N2924   1.157       .  T
C2920      N2923   1.157       .  T
C2929      C2930   1.414       .  A
C2929      C2934   1.404       .  A
C2929      C2943   1.443       .  S
C2930      C2935   1.488       .  S
C2930      C2931   1.401       .  A
C2931      C2932   1.399       .  A
C2931      H2950   1.085       .  S
C2932      C2933   1.414       .  A
C2932      C2944   1.445       .  S
C2933      C2934   1.402       .  A
C2934      H2949   1.085       .  S
C2935      C2936   1.403       .  A
C2935      C2940   1.412       .  A
C2936      C2937   1.403       .  A
C2936      H2951   1.085       .  S
C2937      C2938   1.413       .  A
C2937      C2941   1.444       .  S
C2938      C2939   1.404       .  A
C2939      C2940   1.402       .  A
C2939      H2952   1.084       .  S
C2940      C2942   1.444       .  S
C2941      N2945   1.157       .  T
C2942      N2946   1.157       .  T
C2943      N2948   1.157       .  T
C2944      N2947   1.157       .  T
C2953      C2954   1.414       .  A
C2953      C2958   1.403       .  A
C2953      C2967   1.444       .  S
C2954      C2959   1.485       .  S
C2954      C2955   1.401       .  A
C2955      C2956   1.399       .  A
C2955      H2974   1.085       .  S
C2956      C2957   1.411       .  A
C2956      C2968   1.444       .  S
C2957      C2958   1.401       .  A
C2958      H2973   1.085       .  S
C2959      C2960   1.406       .  A
C2959      C2964   1.407       .  A
C2960      C2961   1.405   1_554  A
C2960      H2975   1.085       .  S
C2961      C2962   1.413       .  A
C2961      C2965   1.444       .  S
C2962      C2963   1.409       .  A
C2963      C2964   1.397   1_556  A
C2963      H2976   1.085       .  S
C2964      C2966   1.445       .  S
C2965      N2969   1.157       .  T
C2966      N2970   1.157       .  T
C2967      N2972   1.157       .  T
C2968      N2971   1.157       .  T
C2977      C2978   1.411       .  A
C2977      C2982   1.401       .  A
C2977      C2991   1.444       .  S
C2978      C2983   1.488       .  S
C2978      C2979   1.406       .  A
C2979      C2980   1.399       .  A
C2979      H2998   1.085       .  S
C2980      C2981   1.408       .  A
C2980      C2992   1.443       .  S
C2981      C2982   1.405       .  A
C2982      H2997   1.085       .  S
C2983      C2984   1.406       .  A
C2983      C2988   1.412       .  A
C2984      C2985   1.399       .  A
C2984      H2999   1.085       .  S
C2985      C2986   1.408       .  A
C2985      C2989   1.444       .  S
C2986      C2987   1.404       .  A
C2987      C2988   1.400       .  A
C2987      H3000   1.085       .  S
C2988      C2990   1.444       .  S
C2989      N2993   1.157       .  T
C2990      N2994   1.157       .  T
C2991      N2996   1.157       .  T
C2992      N2995   1.157       .  T
C3001      C3002   1.406       .  A
C3001      C3006   1.400       .  A
C3001      C3015   1.444       .  S
C3002      C3007   1.481       .  S
C3002      C3003   1.402       .  A
C3003      C3004   1.402       .  A
C3003      H3022   1.085       .  S
C3004      C3005   1.416       .  A
C3004      C3016   1.444       .  S
C3005      C3006   1.410       .  A
C3006      H3021   1.084       .  S
C3007      C3008   1.404       .  A
C3007      C3012   1.404       .  A
C3008      C3009   1.405       .  A
C3008      H3023   1.085       .  S
C3009      C3010   1.415       .  A
C3009      C3013   1.442       .  S
C3010      C3011   1.411       .  A
C3011      C3012   1.395       .  A
C3011      H3024   1.084       .  S
C3012      C3014   1.445       .  S
C3013      N3017   1.157       .  T
C3014      N3018   1.157       .  T
C3015      N3020   1.157       .  T
C3016      N3019   1.157       .  T
C3025      C3026   1.415       .  A
C3025      C3030   1.408       .  A
C3025      C3039   1.443       .  S
C3026      C3031   1.490       .  S
C3026      C3027   1.400       .  A
C3027      C3028   1.398       .  A
C3027      H3046   1.085       .  S
C3028      C3029   1.415       .  A
C3028      C3040   1.445       .  S
C3029      C3030   1.404       .  A
C3030      H3045   1.084       .  S
C3031      C3032   1.401       .  A
C3031      C3036   1.413       .  A
C3032      C3033   1.401       .  A
C3032      H3047   1.085       .  S
C3033      C3034   1.416       .  A
C3033      C3037   1.444       .  S
C3034      C3035   1.405       .  A
C3035      C3036   1.405       .  A
C3035      H3048   1.085       .  S
C3036      C3038   1.444       .  S
C3037      N3041   1.157       .  T
C3038      N3042   1.157       .  T
C3039      N3044   1.157       .  T
C3040      N3043   1.157       .  T
C3049      C3050   1.410       .  A
C3049      C3054   1.406       .  A
C3049      C3063   1.444       .  S
C3050      C3055   1.488       .  S
C3050      C3051   1.401       .  A
C3051      C3052   1.401       .  A
C3051      H3070   1.085       .  S
C3052      C3053   1.417       .  A
C3052      C3064   1.445       .  S
C3053      C3054   1.408       .  A
C3054      H3069   1.084       .  S
C3055      C3056   1.400       .  A
C3055      C3060   1.410       .  A
C3056      C3057   1.401       .  A
C3056      H3071   1.085       .  S
C3057      C3058   1.420       .  A
C3057      C3061   1.444       .  S
C3058      C3059   1.409       .  A
C3059      C3060   1.406       .  A
C3059      H3072   1.084       .  S
C3060      C3062   1.444       .  S
C3061      N3065   1.157       .  T
C3062      N3066   1.157       .  T
C3063      N3068   1.157       .  T
C3064      N3067   1.157       .  T
C3073      C3074   1.414       .  A
C3073      C3078   1.400       .  A
C3073      C3087   1.444       .  S
C3074      C3079   1.495       .  S
C3074      C3075   1.408       .  A
C3075      C3076   1.402       .  A
C3075      H3094   1.085       .  S
C3076      C3077   1.409       .  A
C3076      C3088   1.444       .  S
C3077      C3078   1.404       .  A
C3078      H3093   1.085       .  S
C3079      C3080   1.408       .  A
C3079      C3084   1.413       .  A
C3080      C3081   1.402       .  A
C3080      H3095   1.085       .  S
C3081      C3082   1.410       .  A
C3081      C3085   1.444       .  S
C3082      C3083   1.405       .  A
C3083      C3084   1.401       .  A
C3083      H3096   1.085       .  S
C3084      C3086   1.444       .  S
C3085      N3089   1.157       .  T
C3086      N3090   1.157       .  T
C3087      N3092   1.157       .  T
C3088      N3091   1.157       .  T
C3097      C3098   1.409       .  A
C3097      C3102   1.400       .  A
C3097      C3111   1.445       .  S
C3098      C3103   1.486       .  S
C3098      C3099   1.403   1_554  A
C3099      C3100   1.402       .  A
C3099      H3118   1.085       .  S
C3100      C3101   1.417   1_556  A
C3100      C3112   1.444       .  S
C3101      C3102   1.408       .  A
C3102      H3117   1.085       .  S
C3103      C3104   1.404       .  A
C3103      C3108   1.410       .  A
C3104      C3105   1.403   1_554  A
C3104      H3119   1.085   1_554  S
C3105      C3106   1.415       .  A
C3105      C3109   1.443       .  S
C3106      C3107   1.407   1_556  A
C3107      C3108   1.396       .  A
C3107      H3120   1.085       .  S
C3108      C3110   1.444       .  S
C3109      N3113   1.157       .  T
C3110      N3114   1.157       .  T
C3111      N3116   1.157       .  T
C3112      N3115   1.157       .  T
C3121      C3122   1.409   1_554  A
C3121      C3126   1.396       .  A
C3121      C3135   1.445       .  S
C3122      C3127   1.486       .  S
C3122      C3123   1.405       .  A
C3123      C3124   1.405       .  A
C3123      H3142   1.085       .  S
C3124      C3125   1.414   1_556  A
C3124      C3136   1.443       .  S
C3125      C3126   1.407       .  A
C3126      H3141   1.085       .  S
C3127      C3128   1.401       .  A
C3127      C3132   1.409       .  A
C3128      C3129   1.400       .  A
C3128      H3143   1.085       .  S
C3129      C3130   1.419       .  A
C3129      C3133   1.444       .  S
C3130      C3131   1.409       .  A
C3131      C3132   1.402       .  A
C3131      H3144   1.084       .  S
C3132      C3134   1.444       .  S
C3133      N3137   1.157       .  T
C3134      N3138   1.157       .  T
C3135      N3140   1.157       .  T
C3136      N3139   1.157       .  T
C3145      C3146   1.405       .  A
C3145      C3150   1.391       .  A
C3145      C3159   1.445       .  S
C3146      C3151   1.479       .  S
C3146      C3147   1.405       .  A
C3147      C3148   1.405       .  A
C3147      H3166   1.084       .  S
C3148      C3149   1.413       .  A
C3148      C3160   1.444       .  S
C3149      C3150   1.407       .  A
C3150      H3165   1.085       .  S
C3151      C3152   1.397       .  A
C3151      C3156   1.409       .  A
C3152      C3153   1.399       .  A
C3152      H3167   1.085       .  S
C3153      C3154   1.417       .  A
C3153      C3157   1.443       .  S
C3154      C3155   1.407       .  A
C3155      C3156   1.402       .  A
C3155      H3168   1.084       .  S
C3156      C3158   1.444       .  S
C3157      N3161   1.157       .  T
C3158      N3162   1.157       .  T
C3159      N3164   1.157       .  T
C3160      N3163   1.157       .  T
C3169      C3170   1.403       .  A
C3169      C3174   1.394       .  A
C3169      C3183   1.445       .  S
C3170      C3175   1.477       .  S
C3170      C3171   1.402       .  A
C3171      C3172   1.404       .  A
C3171      H3190   1.085       .  S
C3172      C3173   1.418       .  A
C3172      C3184   1.443       .  S
C3173      C3174   1.411       .  A
C3174      H3189   1.084       .  S
C3175      C3176   1.399       .  A
C3175      C3180   1.409       .  A
C3176      C3177   1.398       .  A
C3176      H3191   1.085       .  S
C3177      C3178   1.415       .  A
C3177      C3181   1.444       .  S
C3178      C3179   1.403       .  A
C3179      C3180   1.399       .  A
C3179      H3192   1.085       .  S
C3180      C3182   1.443       .  S
C3181      N3185   1.157       .  T
C3182      N3186   1.157       .  T
C3183      N3188   1.157       .  T
C3184      N3187   1.157       .  T
C3193      C3194   1.410       .  A
C3193      C3198   1.403       .  A
C3193      C3207   1.444       .  S
C3194      C3199   1.488       .  S
C3194      C3195   1.402       .  A
C3195      C3196   1.403       .  A
C3195      H3214   1.085       .  S
C3196      C3197   1.416       .  A
C3196      C3208   1.444       .  S
C3197      C3198   1.407       .  A
C3198      H3213   1.085       .  S
C3199      C3200   1.400       .  A
C3199      C3204   1.409       .  A
C3200      C3201   1.401       .  A
C3200      H3215   1.085       .  S
C3201      C3202   1.420       .  A
C3201      C3205   1.445       .  S
C3202      C3203   1.409       .  A
C3203      C3204   1.405       .  A
C3203      H3216   1.084       .  S
C3204      C3206   1.443       .  S
C3205      N3209   1.157       .  T
C3206      N3210   1.157       .  T
C3207      N3212   1.157       .  T
C3208      N3211   1.157       .  T
C3217      C3218   1.405       .  A
C3217      C3222   1.391       .  A
C3217      C3231   1.445       .  S
C3218      C3223   1.478       .  S
C3218      C3219   1.407       .  A
C3219      C3220   1.406       .  A
C3219      H3238   1.084       .  S
C3220      C3221   1.408       .  A
C3220      C3232   1.442       .  S
C3221      C3222   1.407       .  A
C3222      H3237   1.085       .  S
C3223      C3224   1.401       .  A
C3223      C3228   1.408       .  A
C3224      C3225   1.403       .  A
C3224      H3239   1.085       .  S
C3225      C3226   1.416       .  A
C3225      C3229   1.443       .  S
C3226      C3227   1.407       .  A
C3227      C3228   1.395       .  A
C3227      H3240   1.085       .  S
C3228      C3230   1.445       .  S
C3229      N3233   1.157       .  T
C3230      N3234   1.157       .  T
C3231      N3236   1.157       .  T
C3232      N3235   1.157       .  T
C3241      C3242   1.408       .  A
C3241      C3246   1.400       .  A
C3241      C3255   1.444   1_455  S
C3242      C3247   1.485   1_455  S
C3242      C3243   1.403       .  A
C3243      C3244   1.403       .  A
C3243      H3262   1.085       .  S
C3244      C3245   1.415       .  A
C3244      C3256   1.443       .  S
C3245      C3246   1.408       .  A
C3246      H3261   1.084       .  S
C3247      C3248   1.400       .  A
C3247      C3252   1.409       .  A
C3248      C3249   1.400       .  A
C3248      H3263   1.085       .  S
C3249      C3250   1.420       .  A
C3249      C3253   1.444       .  S
C3250      C3251   1.408       .  A
C3251      C3252   1.401       .  A
C3251      H3264   1.084       .  S
C3252      C3254   1.443       .  S
C3253      N3257   1.157       .  T
C3254      N3258   1.157       .  T
C3255      N3260   1.157       .  T
C3256      N3259   1.157       .  T
C3265      C3266   1.409       .  A
C3265      C3270   1.403       .  A
C3265      C3279   1.443       .  S
C3266      C3271   1.480       .  S
C3266      C3267   1.398       .  A
C3267      C3268   1.396       .  A
C3267      H3286   1.085       .  S
C3268      C3269   1.418       .  A
C3268      C3280   1.444       .  S
C3269      C3270   1.406       .  A
C3270      H3285   1.085       .  S
C3271      C3272   1.399   1_565  A
C3271      C3276   1.409   1_565  A
C3272      C3273   1.398       .  A
C3272      H3287   1.085   1_545  S
C3273      C3274   1.415       .  A
C3273      C3277   1.443       .  S
C3274      C3275   1.407       .  A
C3275      C3276   1.403       .  A
C3275      H3288   1.085       .  S
C3276      C3278   1.444       .  S
C3277      N3281   1.157       .  T
C3278      N3282   1.157   1_545  T
C3279      N3284   1.157       .  T
C3280      N3283   1.157       .  T
C3289      C3290   1.411       .  A
C3289      C3294   1.398       .  A
C3289      C3303   1.444       .  S
C3290      C3295   1.491       .  S
C3290      C3291   1.406       .  A
C3291      C3292   1.406       .  A
C3291      H3310   1.085       .  S
C3292      C3293   1.415       .  A
C3292      C3304   1.443       .  S
C3293      C3294   1.404       .  A
C3294      H3309   1.085       .  S
C3295      C3296   1.407       .  A
C3295      C3300   1.411       .  A
C3296      C3297   1.401       .  A
C3296      H3311   1.085       .  S
C3297      C3298   1.408       .  A
C3297      C3301   1.444       .  S
C3298      C3299   1.404       .  A
C3299      C3300   1.403       .  A
C3299      H3312   1.085       .  S
C3300      C3302   1.444       .  S
C3301      N3305   1.157       .  T
C3302      N3306   1.157       .  T
C3303      N3308   1.157       .  T
C3304      N3307   1.157       .  T
C3313      C3314   1.411       .  A
C3313      C3318   1.403       .  A
C3313      C3327   1.444       .  S
C3314      C3319   1.489   1_655  S
C3314      C3315   1.403       .  A
C3315      C3316   1.399       .  A
C3315      H3334   1.085       .  S
C3316      C3317   1.415       .  A
C3316      C3328   1.444       .  S
C3317      C3318   1.409       .  A
C3318      H3333   1.084       .  S
C3319      C3320   1.407       .  A
C3319      C3324   1.409       .  A
C3320      C3321   1.404       .  A
C3320      H3335   1.084       .  S
C3321      C3322   1.413       .  A
C3321      C3325   1.444       .  S
C3322      C3323   1.407       .  A
C3323      C3324   1.397       .  A
C3323      H3336   1.085       .  S
C3324      C3326   1.445       .  S
C3325      N3329   1.157       .  T
C3326      N3330   1.157   1_455  T
C3327      N3332   1.157       .  T
C3328      N3331   1.157       .  T
C3337      C3338   1.406       .  A
C3337      C3342   1.396       .  A
C3337      C3351   1.445       .  S
C3338      C3343   1.482   1_565  S
C3338      C3339   1.403       .  A
C3339      C3340   1.403       .  A
C3339      H3358   1.085       .  S
C3340      C3341   1.418       .  A
C3340      C3352   1.444       .  S
C3341      C3342   1.410       .  A
C3342      H3357   1.084       .  S
C3343      C3344   1.403       .  A
C3343      C3348   1.407       .  A
C3344      C3345   1.402       .  A
C3344      H3359   1.085       .  S
C3345      C3346   1.415       .  A
C3345      C3349   1.444       .  S
C3346      C3347   1.408       .  A
C3347      C3348   1.398       .  A
C3347      H3360   1.085       .  S
C3348      C3350   1.444   1_545  S
C3349      N3353   1.157       .  T
C3350      N3354   1.157       .  T
C3351      N3356   1.157       .  T
C3352      N3355   1.157       .  T
C3361      C3362   1.414       .  A
C3361      C3366   1.404   1_556  A
C3361      C3375   1.443       .  S
C3362      C3367   1.490       .  S
C3362      C3363   1.403       .  A
C3363      C3364   1.401   1_556  A
C3363      H3382   1.085       .  S
C3364      C3365   1.412       .  A
C3364      C3376   1.445       .  S
C3365      C3366   1.401       .  A
C3366      H3381   1.085       .  S
C3367      C3368   1.402       .  A
C3367      C3372   1.412       .  A
C3368      C3369   1.403       .  A
C3368      H3383   1.085       .  S
C3369      C3370   1.417       .  A
C3369      C3373   1.444       .  S
C3370      C3371   1.405       .  A
C3371      C3372   1.402       .  A
C3371      H3384   1.085       .  S
C3372      C3374   1.444       .  S
C3373      N3377   1.157       .  T
C3374      N3378   1.157       .  T
C3375      N3380   1.157       .  T
C3376      N3379   1.157       .  T
C3385      C3386   1.412       .  A
C3385      C3390   1.406       .  A
C3385      C3399   1.443       .  S
C3386      C3391   1.486       .  S
C3386      C3387   1.399       .  A
C3387      C3388   1.400       .  A
C3387      H3406   1.085       .  S
C3388      C3389   1.416       .  A
C3388      C3400   1.445       .  S
C3389      C3390   1.404       .  A
C3390      H3405   1.085       .  S
C3391      C3392   1.402       .  A
C3391      C3396   1.409       .  A
C3392      C3393   1.403       .  A
C3392      H3407   1.085       .  S
C3393      C3394   1.415       .  A
C3393      C3397   1.444       .  S
C3394      C3395   1.407       .  A
C3395      C3396   1.403       .  A
C3395      H3408   1.085       .  S
C3396      C3398   1.443       .  S
C3397      N3401   1.157       .  T
C3398      N3402   1.157       .  T
C3399      N3404   1.157       .  T
C3400      N3403   1.157       .  T
C3409      C3410   1.408       .  A
C3409      C3414   1.395       .  A
C3409      C3423   1.446       .  S
C3410      C3415   1.492       .  S
C3410      C3411   1.407       .  A
C3411      C3412   1.408       .  A
C3411      H3430   1.084   1_556  S
C3412      C3413   1.416       .  A
C3412      C3424   1.442   1_556  S
C3413      C3414   1.411       .  A
C3414      H3429   1.084       .  S
C3415      C3416   1.407       .  A
C3415      C3420   1.409       .  A
C3416      C3417   1.405       .  A
C3416      H3431   1.085       .  S
C3417      C3418   1.411       .  A
C3417      C3421   1.442       .  S
C3418      C3419   1.409       .  A
C3419      C3420   1.399       .  A
C3419      H3432   1.085       .  S
C3420      C3422   1.445   1_556  S
C3421      N3425   1.157       .  T
C3422      N3426   1.157       .  T
C3423      N3428   1.157       .  T
C3424      N3427   1.157       .  T
C3433      C3434   1.409       .  A
C3433      C3438   1.395       .  A
C3433      C3447   1.445       .  S
C3434      C3439   1.488   1_655  S
C3434      C3435   1.406       .  A
C3435      C3436   1.408       .  A
C3435      H3454   1.084       .  S
C3436      C3437   1.415       .  A
C3436      C3448   1.443       .  S
C3437      C3438   1.406       .  A
C3438      H3453   1.085       .  S
C3439      C3440   1.401       .  A
C3439      C3444   1.409       .  A
C3440      C3441   1.400       .  A
C3440      H3455   1.085   1_455  S
C3441      C3442   1.420       .  A
C3441      C3445   1.445       .  S
C3442      C3443   1.409       .  A
C3443      C3444   1.403       .  A
C3443      H3456   1.084       .  S
C3444      C3446   1.443       .  S
C3445      N3449   1.157       .  T
C3446      N3450   1.157   1_455  T
C3447      N3452   1.157       .  T
C3448      N3451   1.157       .  T
C3457      C3458   1.406       .  A
C3457      C3462   1.398       .  A
C3457      C3471   1.444       .  S
C3458      C3463   1.478       .  S
C3458      C3459   1.400       .  A
C3459      C3460   1.401       .  A
C3459      H3478   1.085       .  S
C3460      C3461   1.418       .  A
C3460      C3472   1.444   1_554  S
C3461      C3462   1.408       .  A
C3462      H3477   1.085       .  S
C3463      C3464   1.400       .  A
C3463      C3468   1.408       .  A
C3464      C3465   1.398       .  A
C3464      H3479   1.085       .  S
C3465      C3466   1.416       .  A
C3465      C3469   1.445       .  S
C3466      C3467   1.405       .  A
C3467      C3468   1.399       .  A
C3467      H3480   1.085       .  S
C3468      C3470   1.443       .  S
C3469      N3473   1.157       .  T
C3470      N3474   1.157       .  T
C3471      N3476   1.157       .  T
C3472      N3475   1.157       .  T
C3481      C3482   1.412       .  A
C3481      C3486   1.401       .  A
C3481      C3495   1.443       .  S
C3482      C3487   1.491       .  S
C3482      C3483   1.406       .  A
C3483      C3484   1.400       .  A
C3483      H3502   1.085       .  S
C3484      C3485   1.411       .  A
C3484      C3496   1.444       .  S
C3485      C3486   1.404       .  A
C3486      H3501   1.085       .  S
C3487      C3488   1.405       .  A
C3487      C3492   1.414       .  A
C3488      C3489   1.402       .  A
C3488      H3503   1.085       .  S
C3489      C3490   1.413       .  A
C3489      C3493   1.443       .  S
C3490      C3491   1.401       .  A
C3491      C3492   1.399       .  A
C3491      H3504   1.085       .  S
C3492      C3494   1.444       .  S
C3493      N3497   1.157       .  T
C3494      N3498   1.157       .  T
C3495      N3500   1.157       .  T
C3496      N3499   1.157       .  T
C3505      C3506   1.409       .  A
C3505      C3510   1.402       .  A
C3505      C3519   1.444       .  S
C3506      C3511   1.488   1_455  S
C3506      C3507   1.401       .  A
C3507      C3508   1.401       .  A
C3507      H3526   1.085       .  S
C3508      C3509   1.420       .  A
C3508      C3520   1.444       .  S
C3509      C3510   1.409       .  A
C3510      H3525   1.084       .  S
C3511      C3512   1.405       .  A
C3511      C3516   1.408       .  A
C3512      C3513   1.405       .  A
C3512      H3527   1.085       .  S
C3513      C3514   1.415       .  A
C3513      C3517   1.443       .  S
C3514      C3515   1.408       .  A
C3515      C3516   1.397       .  A
C3515      H3528   1.085       .  S
C3516      C3518   1.445       .  S
C3517      N3521   1.157       .  T
C3518      N3522   1.157       .  T
C3519      N3524   1.157       .  T
C3520      N3523   1.157       .  T
C3529      C3530   1.408       .  A
C3529      C3534   1.401       .  A
C3529      C3543   1.444       .  S
C3530      C3535   1.485       .  S
C3530      C3531   1.404       .  A
C3531      C3532   1.403       .  A
C3531      H3550   1.085       .  S
C3532      C3533   1.414       .  A
C3532      C3544   1.444       .  S
C3533      C3534   1.407       .  A
C3534      H3549   1.085       .  S
C3535      C3536   1.401       .  A
C3535      C3540   1.413       .  A
C3536      C3537   1.399       .  A
C3536      H3551   1.085       .  S
C3537      C3538   1.413       .  A
C3537      C3541   1.445       .  S
C3538      C3539   1.401       .  A
C3539      C3540   1.404       .  A
C3539      H3552   1.085       .  S
C3540      C3542   1.443       .  S
C3541      N3545   1.157       .  T
C3542      N3546   1.157       .  T
C3543      N3548   1.157       .  T
C3544      N3547   1.157       .  T
C3553      C3554   1.412       .  A
C3553      C3558   1.405       .  A
C3553      C3567   1.444       .  S
C3554      C3559   1.487       .  S
C3554      C3555   1.402       .  A
C3555      C3556   1.399       .  A
C3555      H3574   1.085       .  S
C3556      C3557   1.413       .  A
C3556      C3568   1.444       .  S
C3557      C3558   1.405       .  A
C3558      H3573   1.085       .  S
C3559      C3560   1.400       .  A
C3559      C3564   1.414       .  A
C3560      C3561   1.396       .  A
C3560      H3575   1.085       .  S
C3561      C3562   1.413       .  A
C3561      C3565   1.445       .  S
C3562      C3563   1.404       .  A
C3563      C3564   1.406       .  A
C3563      H3576   1.084       .  S
C3564      C3566   1.443       .  S
C3565      N3569   1.157       .  T
C3566      N3570   1.157       .  T
C3567      N3572   1.157       .  T
C3568      N3571   1.157       .  T
C3577      C3578   1.412       .  A
C3577      C3582   1.403       .  A
C3577      C3591   1.443       .  S
C3578      C3583   1.482       .  S
C3578      C3579   1.399       .  A
C3579      C3580   1.397       .  A
C3579      H3598   1.085       .  S
C3580      C3581   1.414       .  A
C3580      C3592   1.445       .  S
C3581      C3582   1.404       .  A
C3582      H3597   1.085       .  S
C3583      C3584   1.403       .  A
C3583      C3588   1.410       .  A
C3584      C3585   1.401       .  A
C3584      H3599   1.085       .  S
C3585      C3586   1.413       .  A
C3585      C3589   1.445       .  S
C3586      C3587   1.403       .  A
C3587      C3588   1.400       .  A
C3587      H3600   1.085       .  S
C3588      C3590   1.444       .  S
C3589      N3593   1.157       .  T
C3590      N3594   1.157       .  T
C3591      N3596   1.157       .  T
C3592      N3595   1.157       .  T
C3601      C3602   1.414       .  A
C3601      C3606   1.403       .  A
C3601      C3615   1.445       .  S
C3602      C3607   1.491       .  S
C3602      C3603   1.402       .  A
C3603      C3604   1.401       .  A
C3603      H3622   1.085       .  S
C3604      C3605   1.414       .  A
C3604      C3616   1.444       .  S
C3605      C3606   1.403       .  A
C3606      H3621   1.085       .  S
C3607      C3608   1.403       .  A
C3607      C3612   1.414       .  A
C3608      C3609   1.401       .  A
C3608      H3623   1.085       .  S
C3609      C3610   1.414       .  A
C3609      C3613   1.445       .  S
C3610      C3611   1.402       .  A
C3611      C3612   1.401       .  A
C3611      H3624   1.085       .  S
C3612      C3614   1.444       .  S
C3613      N3617   1.157       .  T
C3614      N3618   1.157       .  T
C3615      N3620   1.157       .  T
C3616      N3619   1.157       .  T
C3625      C3626   1.408       .  A
C3625      C3630   1.402       .  A
C3625      C3639   1.444       .  S
C3626      C3631   1.486       .  S
C3626      C3627   1.401       .  A
C3627      C3628   1.403       .  A
C3627      H3646   1.085       .  S
C3628      C3629   1.419       .  A
C3628      C3640   1.444       .  S
C3629      C3630   1.411       .  A
C3630      H3645   1.084       .  S
C3631      C3632   1.398       .  A
C3631      C3636   1.410       .  A
C3632      C3633   1.399       .  A
C3632      H3647   1.085       .  S
C3633      C3634   1.420       .  A
C3633      C3637   1.444       .  S
C3634      C3635   1.408       .  A
C3635      C3636   1.406       .  A
C3635      H3648   1.084       .  S
C3636      C3638   1.443       .  S
C3637      N3641   1.157       .  T
C3638      N3642   1.157       .  T
C3639      N3644   1.157       .  T
C3640      N3643   1.157       .  T
C3649      C3650   1.412       .  A
C3649      C3654   1.401       .  A
C3649      C3663   1.444       .  S
C3650      C3655   1.491       .  S
C3650      C3651   1.405       .  A
C3651      C3652   1.402       .  A
C3651      H3670   1.085       .  S
C3652      C3653   1.412       .  A
C3652      C3664   1.445       .  S
C3653      C3654   1.404       .  A
C3654      H3669   1.085       .  S
C3655      C3656   1.408       .  A
C3655      C3660   1.412       .  A
C3656      C3657   1.404       .  A
C3656      H3671   1.085       .  S
C3657      C3658   1.407       .  A
C3657      C3661   1.443       .  S
C3658      C3659   1.404       .  A
C3659      C3660   1.400       .  A
C3659      H3672   1.085       .  S
C3660      C3662   1.444       .  S
C3661      N3665   1.157       .  T
C3662      N3666   1.157       .  T
C3663      N3668   1.157       .  T
C3664      N3667   1.157       .  T
C3673      C3674   1.414       .  A
C3673      C3678   1.399       .  A
C3673      C3687   1.444       .  S
C3674      C3679   1.491       .  S
C3674      C3675   1.405       .  A
C3675      C3676   1.399       .  A
C3675      H3694   1.084       .  S
C3676      C3677   1.412       .  A
C3676      C3688   1.444       .  S
C3677      C3678   1.404       .  A
C3678      H3693   1.085       .  S
C3679      C3680   1.406       .  A
C3679      C3684   1.416       .  A
C3680      C3681   1.400       .  A
C3680      H3695   1.084       .  S
C3681      C3682   1.409       .  A
C3681      C3685   1.444       .  S
C3682      C3683   1.400       .  A
C3683      C3684   1.398       .  A
C3683      H3696   1.085       .  S
C3684      C3686   1.444       .  S
C3685      N3689   1.157       .  T
C3686      N3690   1.157       .  T
C3687      N3692   1.157       .  T
C3688      N3691   1.157       .  T
C3697      C3698   1.408       .  A
C3697      C3702   1.395       .  A
C3697      C3711   1.444       .  S
C3698      C3703   1.485       .  S
C3698      C3699   1.408       .  A
C3699      C3700   1.405       .  A
C3699      H3718   1.085       .  S
C3700      C3701   1.411       .  A
C3700      C3712   1.444       .  S
C3701      C3702   1.406       .  A
C3702      H3717   1.085       .  S
C3703      C3704   1.403       .  A
C3703      C3708   1.407       .  A
C3704      C3705   1.401       .  A
C3704      H3719   1.085       .  S
C3705      C3706   1.416       .  A
C3705      C3709   1.443       .  S
C3706      C3707   1.410       .  A
C3707      C3708   1.398       .  A
C3707      H3720   1.085       .  S
C3708      C3710   1.444       .  S
C3709      N3713   1.157       .  T
C3710      N3714   1.157       .  T
C3711      N3716   1.157       .  T
C3712      N3715   1.157       .  T
C3721      C3722   1.411       .  A
C3721      C3726   1.403       .  A
C3721      C3735   1.443       .  S
C3722      C3727   1.478       .  S
C3722      C3723   1.398       .  A
C3723      C3724   1.395       .  A
C3723      H3742   1.085       .  S
C3724      C3725   1.414       .  A
C3724      C3736   1.446       .  S
C3725      C3726   1.403       .  A
C3726      H3741   1.085       .  S
C3727      C3728   1.401       .  A
C3727      C3732   1.405       .  A
C3728      C3729   1.403   1_554  A
C3728      H3743   1.085       .  S
C3729      C3730   1.417       .  A
C3729      C3733   1.443       .  S
C3730      C3731   1.411       .  A
C3731      C3732   1.398   1_556  A
C3731      H3744   1.085       .  S
C3732      C3734   1.445       .  S
C3733      N3737   1.157       .  T
C3734      N3738   1.157       .  T
C3735      N3740   1.157       .  T
C3736      N3739   1.157       .  T
C3745      C3746   1.413       .  A
C3745      C3750   1.404       .  A
C3745      C3759   1.444       .  S
C3746      C3751   1.493       .  S
C3746      C3747   1.406       .  A
C3747      C3748   1.402       .  A
C3747      H3766   1.085       .  S
C3748      C3749   1.409       .  A
C3748      C3760   1.443       .  S
C3749      C3750   1.405       .  A
C3750      H3765   1.085       .  S
C3751      C3752   1.406       .  A
C3751      C3756   1.412       .  A
C3752      C3753   1.402       .  A
C3752      H3767   1.085       .  S
C3753      C3754   1.411       .  A
C3753      C3757   1.443       .  S
C3754      C3755   1.406       .  A
C3755      C3756   1.403       .  A
C3755      H3768   1.085       .  S
C3756      C3758   1.444       .  S
C3757      N3761   1.157       .  T
C3758      N3762   1.157       .  T
C3759      N3764   1.157       .  T
C3760      N3763   1.157       .  T
C3769      C3770   1.406       .  A
C3769      C3774   1.397       .  A
C3769      C3783   1.445       .  S
C3770      C3775   1.481       .  S
C3770      C3771   1.403       .  A
C3771      C3772   1.402       .  A
C3771      H3790   1.085       .  S
C3772      C3773   1.413       .  A
C3772      C3784   1.441       .  S
C3773      C3774   1.411       .  A
C3774      H3789   1.084       .  S
C3775      C3776   1.400       .  A
C3775      C3780   1.407       .  A
C3776      C3777   1.399       .  A
C3776      H3791   1.085       .  S
C3777      C3778   1.418       .  A
C3777      C3781   1.444       .  S
C3778      C3779   1.410       .  A
C3779      C3780   1.399       .  A
C3779      H3792   1.084       .  S
C3780      C3782   1.444       .  S
C3781      N3785   1.157       .  T
C3782      N3786   1.157       .  T
C3783      N3788   1.157       .  T
C3784      N3787   1.157       .  T
C3793      C3794   1.413       .  A
C3793      C3798   1.400       .  A
C3793      C3807   1.444       .  S
C3794      C3799   1.489       .  S
C3794      C3795   1.404       .  A
C3795      C3796   1.402       .  A
C3795      H3814   1.085       .  S
C3796      C3797   1.412       .  A
C3796      C3808   1.444       .  S
C3797      C3798   1.402       .  A
C3798      H3813   1.085       .  S
C3799      C3800   1.405       .  A
C3799      C3804   1.412       .  A
C3800      C3801   1.400       .  A
C3800      H3815   1.085       .  S
C3801      C3802   1.411       .  A
C3801      C3805   1.444       .  S
C3802      C3803   1.404       .  A
C3803      C3804   1.402       .  A
C3803      H3816   1.085       .  S
C3804      C3806   1.444       .  S
C3805      N3809   1.157       .  T
C3806      N3810   1.157       .  T
C3807      N3812   1.157       .  T
C3808      N3811   1.157       .  T
C3817      C3818   1.408       .  A
C3817      C3822   1.401       .  A
C3817      C3831   1.444       .  S
C3818      C3823   1.493       .  S
C3818      C3819   1.404       .  A
C3819      C3820   1.409       .  A
C3819      H3838   1.085       .  S
C3820      C3821   1.419       .  A
C3820      C3832   1.443       .  S
C3821      C3822   1.411       .  A
C3822      H3837   1.084       .  S
C3823      C3824   1.403       .  A
C3823      C3828   1.408       .  A
C3824      C3825   1.408       .  A
C3824      H3839   1.085       .  S
C3825      C3826   1.420       .  A
C3825      C3829   1.443       .  S
C3826      C3827   1.412       .  A
C3827      C3828   1.402       .  A
C3827      H3840   1.083       .  S
C3828      C3830   1.445       .  S
C3829      N3833   1.157       .  T
C3830      N3834   1.157       .  T
C3831      N3836   1.157       .  T
C3832      N3835   1.157       .  T
C3841      C3842   1.415       .  A
C3841      C3846   1.404       .  A
C3841      C3855   1.443       .  S
C3842      C3847   1.496       .  S
C3842      C3843   1.406       .  A
C3843      C3844   1.401       .  A
C3843      H3862   1.085       .  S
C3844      C3845   1.412       .  A
C3844      C3856   1.444       .  S
C3845      C3846   1.405       .  A
C3846      H3861   1.085       .  S
C3847      C3848   1.409       .  A
C3847      C3852   1.413       .  A
C3848      C3849   1.404       .  A
C3848      H3863   1.085       .  S
C3849      C3850   1.408       .  A
C3849      C3853   1.443       .  S
C3850      C3851   1.404       .  A
C3851      C3852   1.403       .  A
C3851      H3864   1.085       .  S
C3852      C3854   1.444       .  S
C3853      N3857   1.157       .  T
C3854      N3858   1.157       .  T
C3855      N3860   1.157       .  T
C3856      N3859   1.157       .  T
C3865      C3866   1.408       .  A
C3865      C3870   1.405       .  A
C3865      C3879   1.444       .  S
C3866      C3871   1.491       .  S
C3866      C3867   1.402       .  A
C3867      C3868   1.405       .  A
C3867      H3886   1.085       .  S
C3868      C3869   1.421       .  A
C3868      C3880   1.444       .  S
C3869      C3870   1.412       .  A
C3870      H3885   1.084       .  S
C3871      C3872   1.405   1_556  A
C3871      C3876   1.408       .  A
C3872      C3873   1.407       .  A
C3872      H3887   1.085       .  S
C3873      C3874   1.415   1_554  A
C3873      C3877   1.443       .  S
C3874      C3875   1.409       .  A
C3875      C3876   1.402       .  A
C3875      H3888   1.085       .  S
C3876      C3878   1.444       .  S
C3877      N3881   1.157       .  T
C3878      N3882   1.157       .  T
C3879      N3884   1.157       .  T
C3880      N3883   1.157   1_556  T
C3889      C3890   1.408       .  A
C3889      C3894   1.397       .  A
C3889      C3903   1.444       .  S
C3890      C3895   1.486       .  S
C3890      C3891   1.404       .  A
C3891      C3892   1.405   1_554  A
C3891      H3910   1.085       .  S
C3892      C3893   1.417       .  A
C3892      C3904   1.443       .  S
C3893      C3894   1.408   1_556  A
C3894      H3909   1.085       .  S
C3895      C3896   1.402   1_554  A
C3895      C3900   1.411       .  A
C3896      C3897   1.401       .  A
C3896      H3911   1.085       .  S
C3897      C3898   1.415   1_556  A
C3897      C3901   1.444       .  S
C3898      C3899   1.406       .  A
C3899      C3900   1.401       .  A
C3899      H3912   1.085       .  S
C3900      C3902   1.444       .  S
C3901      N3905   1.157       .  T
C3902      N3906   1.157       .  T
C3903      N3908   1.157       .  T
C3904      N3907   1.157       .  T
C3913      C3914   1.410       .  A
C3913      C3918   1.400       .  A
C3913      C3927   1.444       .  S
C3914      C3919   1.482       .  S
C3914      C3915   1.400       .  A
C3915      C3916   1.401       .  A
C3915      H3934   1.085       .  S
C3916      C3917   1.417       .  A
C3916      C3928   1.444       .  S
C3917      C3918   1.405       .  A
C3918      H3933   1.085       .  S
C3919      C3920   1.406       .  A
C3919      C3924   1.406       .  A
C3920      C3921   1.406       .  A
C3920      H3935   1.085       .  S
C3921      C3922   1.415       .  A
C3921      C3925   1.444       .  S
C3922      C3923   1.408       .  A
C3923      C3924   1.394       .  A
C3923      H3936   1.085       .  S
C3924      C3926   1.444       .  S
C3925      N3929   1.157       .  T
C3926      N3930   1.157       .  T
C3927      N3932   1.157       .  T
C3928      N3931   1.157       .  T
C3937      C3938   1.409       .  A
C3937      C3942   1.399       .  A
C3937      C3951   1.444       .  S
C3938      C3943   1.488       .  S
C3938      C3939   1.406       .  A
C3939      C3940   1.404       .  A
C3939      H3958   1.085       .  S
C3940      C3941   1.414       .  A
C3940      C3952   1.445       .  S
C3941      C3942   1.406       .  A
C3942      H3957   1.085       .  S
C3943      C3944   1.406       .  A
C3943      C3948   1.407       .  A
C3944      C3945   1.406       .  A
C3944      H3959   1.085       .  S
C3945      C3946   1.416       .  A
C3945      C3949   1.444       .  S
C3946      C3947   1.408       .  A
C3947      C3948   1.397       .  A
C3947      H3960   1.085       .  S
C3948      C3950   1.444       .  S
C3949      N3953   1.157       .  T
C3950      N3954   1.157       .  T
C3951      N3956   1.157       .  T
C3952      N3955   1.158       .  T
C3961      C3962   1.412       .  A
C3961      C3966   1.404       .  A
C3961      C3975   1.444       .  S
C3962      C3967   1.497       .  S
C3962      C3963   1.405       .  A
C3963      C3964   1.406       .  A
C3963      H3982   1.085       .  S
C3964      C3965   1.415       .  A
C3964      C3976   1.443       .  S
C3965      C3966   1.407       .  A
C3966      H3981   1.085       .  S
C3967      C3968   1.406       .  A
C3967      C3972   1.413       .  A
C3968      C3969   1.404       .  A
C3968      H3983   1.085       .  S
C3969      C3970   1.412       .  A
C3969      C3973   1.444       .  S
C3970      C3971   1.406       .  A
C3971      C3972   1.406       .  A
C3971      H3984   1.085       .  S
C3972      C3974   1.444       .  S
C3973      N3977   1.157       .  T
C3974      N3978   1.157       .  T
C3975      N3980   1.157       .  T
C3976      N3979   1.157       .  T
C3985      C3986   1.412       .  A
C3985      C3990   1.402       .  A
C3985      C3999   1.444       .  S
C3986      C3991   1.488       .  S
C3986      C3987   1.405       .  A
C3987      C3988   1.397       .  A
C3987      H4006   1.085       .  S
C3988      C3989   1.409       .  A
C3988      C4000   1.444       .  S
C3989      C3990   1.404       .  A
C3990      H4005   1.085       .  S
C3991      C3992   1.403       .  A
C3991      C3996   1.414       .  A
C3992      C3993   1.401       .  A
C3992      H4007   1.085       .  S
C3993      C3994   1.412       .  A
C3993      C3997   1.443       .  S
C3994      C3995   1.401       .  A
C3995      C3996   1.399       .  A
C3995      H4008   1.085       .  S
C3996      C3998   1.444       .  S
C3997      N4001   1.157       .  T
C3998      N4002   1.157       .  T
C3999      N4004   1.157       .  T
C4000      N4003   1.157       .  T
C4009      C4010   1.410   1_565  A
C4009      C4014   1.402       .  A
C4009      C4023   1.444       .  S
C4010      C4015   1.485       .  S
C4010      C4011   1.400   1_545  A
C4011      C4012   1.402       .  A
C4011      H4030   1.085   1_565  S
C4012      C4013   1.418       .  A
C4012      C4024   1.444       .  S
C4013      C4014   1.405       .  A
C4014      H4029   1.085       .  S
C4015      C4016   1.401       .  A
C4015      C4020   1.407       .  A
C4016      C4017   1.403       .  A
C4016      H4031   1.085       .  S
C4017      C4018   1.419       .  A
C4017      C4021   1.444       .  S
C4018      C4019   1.408       .  A
C4019      C4020   1.400       .  A
C4019      H4032   1.084       .  S
C4020      C4022   1.443       .  S
C4021      N4025   1.157       .  T
C4022      N4026   1.157       .  T
C4023      N4028   1.157   1_565  T
C4024      N4027   1.157       .  T
C4033      C4034   1.409       .  A
C4033      C4038   1.399       .  A
C4033      C4047   1.444       .  S
C4034      C4039   1.484       .  S
C4034      C4035   1.402       .  A
C4035      C4036   1.399       .  A
C4035      H4054   1.085       .  S
C4036      C4037   1.416       .  A
C4036      C4048   1.444       .  S
C4037      C4038   1.407       .  A
C4038      H4053   1.084       .  S
C4039      C4040   1.405   1_455  A
C4039      C4044   1.407   1_455  A
C4040      C4041   1.402       .  A
C4040      H4055   1.085       .  S
C4041      C4042   1.413       .  A
C4041      C4045   1.443       .  S
C4042      C4043   1.409       .  A
C4043      C4044   1.396       .  A
C4043      H4056   1.085       .  S
C4044      C4046   1.445   1_655  S
C4045      N4049   1.157       .  T
C4046      N4050   1.157       .  T
C4047      N4052   1.157       .  T
C4048      N4051   1.157       .  T
C4057      C4058   1.415       .  A
C4057      C4062   1.401       .  A
C4057      C4071   1.444       .  S
C4058      C4063   1.496       .  S
C4058      C4059   1.405       .  A
C4059      C4060   1.404       .  A
C4059      H4078   1.084       .  S
C4060      C4061   1.414       .  A
C4060      C4072   1.444       .  S
C4061      C4062   1.402       .  A
C4062      H4077   1.085       .  S
C4063      C4064   1.406       .  A
C4063      C4068   1.415       .  A
C4064      C4065   1.400       .  A
C4064      H4079   1.085       .  S
C4065      C4066   1.409       .  A
C4065      C4069   1.444       .  S
C4066      C4067   1.404       .  A
C4067      C4068   1.405       .  A
C4067      H4080   1.085       .  S
C4068      C4070   1.443       .  S
C4069      N4073   1.157       .  T
C4070      N4074   1.157       .  T
C4071      N4076   1.157       .  T
C4072      N4075   1.157       .  T
C4081      C4082   1.407       .  A
C4081      C4086   1.401       .  A
C4081      C4095   1.444       .  S
C4082      C4087   1.485   1_565  S
C4082      C4083   1.402       .  A
C4083      C4084   1.404       .  A
C4083      H4102   1.085       .  S
C4084      C4085   1.418       .  A
C4084      C4096   1.444       .  S
C4085      C4086   1.410       .  A
C4086      H4101   1.084       .  S
C4087      C4088   1.399       .  A
C4087      C4092   1.411       .  A
C4088      C4089   1.399       .  A
C4088      H4103   1.085       .  S
C4089      C4090   1.416       .  A
C4089      C4093   1.444       .  S
C4090      C4091   1.406       .  A
C4091      C4092   1.406       .  A
C4091      H4104   1.083       .  S
C4092      C4094   1.444       .  S
C4093      N4097   1.157       .  T
C4094      N4098   1.157       .  T
C4095      N4100   1.157       .  T
C4096      N4099   1.157       .  T
C4105      C4106   1.409       .  A
C4105      C4110   1.402       .  A
C4105      C4119   1.443       .  S
C4106      C4111   1.490       .  S
C4106      C4107   1.403       .  A
C4107      C4108   1.403       .  A
C4107      H4126   1.085       .  S
C4108      C4109   1.418       .  A
C4108      C4120   1.444       .  S
C4109      C4110   1.408       .  A
C4110      H4125   1.084       .  S
C4111      C4112   1.407   1_455  A
C4111      C4116   1.409   1_455  A
C4112      C4113   1.406       .  A
C4112      H4127   1.084       .  S
C4113      C4114   1.412       .  A
C4113      C4117   1.444       .  S
C4114      C4115   1.408       .  A
C4115      C4116   1.400       .  A
C4115      H4128   1.085       .  S
C4116      C4118   1.444   1_655  S
C4117      N4121   1.157       .  T
C4118      N4122   1.157       .  T
C4119      N4124   1.157       .  T
C4120      N4123   1.157       .  T
C4129      C4130   1.411       .  A
C4129      C4134   1.402   1_556  A
C4129      C4143   1.443       .  S
C4130      C4135   1.482       .  S
C4130      C4131   1.401       .  A
C4131      C4132   1.400   1_556  A
C4131      H4150   1.085       .  S
C4132      C4133   1.415       .  A
C4132      C4144   1.446       .  S
C4133      C4134   1.402       .  A
C4134      H4149   1.085       .  S
C4135      C4136   1.399       .  A
C4135      C4140   1.408       .  A
C4136      C4137   1.400       .  A
C4136      H4151   1.085       .  S
C4137      C4138   1.418       .  A
C4137      C4141   1.444       .  S
C4138      C4139   1.408       .  A
C4139      C4140   1.402       .  A
C4139      H4152   1.085       .  S
C4140      C4142   1.444       .  S
C4141      N4145   1.157       .  T
C4142      N4146   1.157       .  T
C4143      N4148   1.157       .  T
C4144      N4147   1.157       .  T
C4153      C4154   1.410       .  A
C4153      C4158   1.399       .  A
C4153      C4167   1.445       .  S
C4154      C4159   1.486       .  S
C4154      C4155   1.404       .  A
C4155      C4156   1.399       .  A
C4155      H4174   1.085       .  S
C4156      C4157   1.413       .  A
C4156      C4168   1.443       .  S
C4157      C4158   1.408       .  A
C4158      H4173   1.085       .  S
C4159      C4160   1.405       .  A
C4159      C4164   1.409       .  A
C4160      C4161   1.403       .  A
C4160      H4175   1.085       .  S
C4161      C4162   1.415       .  A
C4161      C4165   1.444       .  S
C4162      C4163   1.408       .  A
C4163      C4164   1.394       .  A
C4163      H4176   1.084       .  S
C4164      C4166   1.445       .  S
C4165      N4169   1.157       .  T
C4166      N4170   1.157       .  T
C4167      N4172   1.157       .  T
C4168      N4171   1.157       .  T
C4177      C4178   1.406       .  A
C4177      C4182   1.394       .  A
C4177      C4191   1.445       .  S
C4178      C4183   1.483       .  S
C4178      C4179   1.407       .  A
C4179      C4180   1.408       .  A
C4179      H4198   1.084       .  S
C4180      C4181   1.411       .  A
C4180      C4192   1.442   1_556  S
C4181      C4182   1.407       .  A
C4182      H4197   1.085       .  S
C4183      C4184   1.400       .  A
C4183      C4188   1.410       .  A
C4184      C4185   1.404       .  A
C4184      H4199   1.085       .  S
C4185      C4186   1.418       .  A
C4185      C4189   1.443       .  S
C4186      C4187   1.407       .  A
C4187      C4188   1.398       .  A
C4187      H4200   1.085       .  S
C4188      C4190   1.445       .  S
C4189      N4193   1.157       .  T
C4190      N4194   1.157       .  T
C4191      N4196   1.157       .  T
C4192      N4195   1.157       .  T
C4201      C4202   1.413       .  A
C4201      C4206   1.405       .  A
C4201      C4215   1.444       .  S
C4202      C4207   1.496       .  S
C4202      C4203   1.403       .  A
C4203      C4204   1.406       .  A
C4203      H4222   1.085       .  S
C4204      C4205   1.417       .  A
C4204      C4216   1.444       .  S
C4205      C4206   1.406       .  A
C4206      H4221   1.085       .  S
C4207      C4208   1.406       .  A
C4207      C4212   1.411       .  A
C4208      C4209   1.408       .  A
C4208      H4223   1.084       .  S
C4209      C4210   1.414       .  A
C4209      C4213   1.443       .  S
C4210      C4211   1.408       .  A
C4211      C4212   1.403       .  A
C4211      H4224   1.085       .  S
C4212      C4214   1.445       .  S
C4213      N4217   1.157       .  T
C4214      N4218   1.157       .  T
C4215      N4220   1.157       .  T
C4216      N4219   1.157       .  T
C4225      C4226   1.408   1_655  A
C4225      C4230   1.399       .  A
C4225      C4239   1.445   1_655  S
C4226      C4231   1.487       .  S
C4226      C4227   1.405   1_455  A
C4227      C4228   1.406       .  A
C4227      H4246   1.084       .  S
C4228      C4229   1.413       .  A
C4228      C4240   1.443       .  S
C4229      C4230   1.408       .  A
C4230      H4245   1.085       .  S
C4231      C4232   1.399       .  A
C4231      C4236   1.409       .  A
C4232      C4233   1.400       .  A
C4232      H4247   1.085       .  S
C4233      C4234   1.423       .  A
C4233      C4237   1.445       .  S
C4234      C4235   1.410       .  A
C4235      C4236   1.404       .  A
C4235      H4248   1.084       .  S
C4236      C4238   1.443       .  S
C4237      N4241   1.157       .  T
C4238      N4242   1.157       .  T
C4239      N4244   1.157       .  T
C4240      N4243   1.157       .  T
C4249      C4250   1.411       .  A
C4249      C4254   1.399       .  A
C4249      C4263   1.444       .  S
C4250      C4255   1.493       .  S
C4250      C4251   1.404       .  A
C4251      C4252   1.404       .  A
C4251      H4270   1.085       .  S
C4252      C4253   1.419       .  A
C4252      C4264   1.443       .  S
C4253      C4254   1.408       .  A
C4254      H4269   1.085       .  S
C4255      C4256   1.404       .  A
C4255      C4260   1.413       .  A
C4256      C4257   1.400       .  A
C4256      H4271   1.085       .  S
C4257      C4258   1.414       .  A
C4257      C4261   1.444       .  S
C4258      C4259   1.406       .  A
C4259      C4260   1.404       .  A
C4259      H4272   1.085       .  S
C4260      C4262   1.444       .  S
C4261      N4265   1.157       .  T
C4262      N4266   1.157       .  T
C4263      N4268   1.157       .  T
C4264      N4267   1.157       .  T
C4273      C4274   1.415       .  A
C4273      C4278   1.403       .  A
C4273      C4287   1.444       .  S
C4274      C4279   1.498       .  S
C4274      C4275   1.406       .  A
C4275      C4276   1.405       .  A
C4275      H4294   1.084       .  S
C4276      C4277   1.411       .  A
C4276      C4288   1.442       .  S
C4277      C4278   1.403       .  A
C4278      H4293   1.085       .  S
C4279      C4280   1.406       .  A
C4279      C4284   1.414       .  A
C4280      C4281   1.401       .  A
C4280      H4295   1.085       .  S
C4281      C4282   1.413       .  A
C4281      C4285   1.445       .  S
C4282      C4283   1.406       .  A
C4283      C4284   1.406       .  A
C4283      H4296   1.085       .  S
C4284      C4286   1.443       .  S
C4285      N4289   1.157       .  T
C4286      N4290   1.157       .  T
C4287      N4292   1.157       .  T
C4288      N4291   1.157       .  T
C4297      C4298   1.411       .  A
C4297      C4302   1.402       .  A
C4297      C4311   1.444       .  S
C4298      C4303   1.483       .  S
C4298      C4299   1.400       .  A
C4299      C4300   1.396       .  A
C4299      H4318   1.085       .  S
C4300      C4301   1.415       .  A
C4300      C4312   1.444       .  S
C4301      C4302   1.406       .  A
C4302      H4317   1.085       .  S
C4303      C4304   1.402       .  A
C4303      C4308   1.408       .  A
C4304      C4305   1.400       .  A
C4304      H4319   1.085       .  S
C4305      C4306   1.416       .  A
C4305      C4309   1.444       .  S
C4306      C4307   1.408       .  A
C4307      C4308   1.400       .  A
C4307      H4320   1.084       .  S
C4308      C4310   1.444       .  S
C4309      N4313   1.157       .  T
C4310      N4314   1.157       .  T
C4311      N4316   1.157       .  T
C4312      N4315   1.157       .  T
C4321      C4322   1.408   1_655  A
C4321      C4326   1.397       .  A
C4321      C4335   1.444   1_655  S
C4322      C4327   1.485       .  S
C4322      C4323   1.403   1_455  A
C4323      C4324   1.403       .  A
C4323      H4342   1.085       .  S
C4324      C4325   1.416       .  A
C4324      C4336   1.443       .  S
C4325      C4326   1.407       .  A
C4326      H4341   1.085       .  S
C4327      C4328   1.401       .  A
C4327      C4332   1.408       .  A
C4328      C4329   1.400       .  A
C4328      H4343   1.085       .  S
C4329      C4330   1.419       .  A
C4329      C4333   1.444       .  S
C4330      C4331   1.409       .  A
C4331      C4332   1.401       .  A
C4331      H4344   1.084       .  S
C4332      C4334   1.444       .  S
C4333      N4337   1.157       .  T
C4334      N4338   1.157       .  T
C4335      N4340   1.157       .  T
C4336      N4339   1.157       .  T
C4345      C4346   1.413       .  A
C4345      C4350   1.402       .  A
C4345      C4359   1.443       .  S
C4346      C4351   1.483       .  S
C4346      C4347   1.401       .  A
C4347      C4348   1.397       .  A
C4347      H4366   1.085       .  S
C4348      C4349   1.414       .  A
C4348      C4360   1.446       .  S
C4349      C4350   1.401       .  A
C4350      H4365   1.084       .  S
C4351      C4352   1.401       .  A
C4351      C4356   1.412       .  A
C4352      C4353   1.398       .  A
C4352      H4367   1.085       .  S
C4353      C4354   1.413       .  A
C4353      C4357   1.444       .  S
C4354      C4355   1.405       .  A
C4355      C4356   1.402       .  A
C4355      H4368   1.085       .  S
C4356      C4358   1.444       .  S
C4357      N4361   1.157       .  T
C4358      N4362   1.157       .  T
C4359      N4364   1.157       .  T
C4360      N4363   1.157       .  T
C4369      C4370   1.415       .  A
C4369      C4374   1.404       .  A
C4369      C4383   1.443       .  S
C4370      C4375   1.492       .  S
C4370      C4371   1.406       .  A
C4371      C4372   1.401       .  A
C4371      H4390   1.085       .  S
C4372      C4373   1.410       .  A
C4372      C4384   1.446       .  S
C4373      C4374   1.400       .  A
C4374      H4389   1.085       .  S
C4375      C4376   1.400       .  A
C4375      C4380   1.413       .  A
C4376      C4377   1.399       .  A
C4376      H4391   1.085       .  S
C4377      C4378   1.420       .  A
C4377      C4381   1.444       .  S
C4378      C4379   1.408       .  A
C4379      C4380   1.406       .  A
C4379      H4392   1.084       .  S
C4380      C4382   1.443       .  S
C4381      N4385   1.157       .  T
C4382      N4386   1.157       .  T
C4383      N4388   1.157       .  T
C4384      N4387   1.158       .  T
C4393      C4394   1.410       .  A
C4393      C4398   1.403       .  A
C4393      C4407   1.444       .  S
C4394      C4399   1.486       .  S
C4394      C4395   1.404       .  A
C4395      C4396   1.401       .  A
C4395      H4414   1.085       .  S
C4396      C4397   1.412       .  A
C4396      C4408   1.445       .  S
C4397      C4398   1.405       .  A
C4398      H4413   1.085       .  S
C4399      C4400   1.404       .  A
C4399      C4404   1.407       .  A
C4400      C4401   1.405       .  A
C4400      H4415   1.085       .  S
C4401      C4402   1.418       .  A
C4401      C4405   1.444       .  S
C4402      C4403   1.409       .  A
C4403      C4404   1.397       .  A
C4403      H4416   1.084       .  S
C4404      C4406   1.444       .  S
C4405      N4409   1.157       .  T
C4406      N4410   1.157       .  T
C4407      N4412   1.157       .  T
C4408      N4411   1.157       .  T
