geometry optimzed in LAMMPS
_audit_creation_date              2020-11-30 
_audit_creation_method            'lammps2cif' 
_symmetry_space_group_name_H-M    'P1' 
_symmetry_Int_Tables_number       1 
_symmetry_cell_setting            triclinic 
loop_ 
_symmetry_equiv_pos_as_xyz 
  x,y,z 
_cell_length_a                    32.8280008745053 
_cell_length_b                    32.575487715045384 
_cell_length_c                    45.66059021019174 
_cell_angle_alpha                 89.47103519335505 
_cell_angle_beta                  91.0513613702659 
_cell_angle_gamma                 120.35615804445308 
loop_ 
_atom_site_label 
_atom_site_type_symbol 
_atom_site_fract_x 
_atom_site_fract_y 
_atom_site_fract_z 
_atom_site_charge 
Fe1        Fe  0.12830462  0.69396020  0.31825437     1.65780
Fe2        Fe  0.14448932  0.78250560  0.36269263     1.73250
Fe3        Fe  0.23733256  0.77969882  0.33682600     1.54420
O4          O  0.23565870  0.71663858  0.32411311    -0.82300
O5          O  0.18377333  0.84762567  0.34287612    -0.80610
O6          O  0.16405483  0.66411028  0.33672880    -0.84810
O7          O  0.17216953  0.72036444  0.28177466    -0.79660
O8          O  0.23802219  0.76471813  0.38097581    -0.81440
O9          O  0.08667660  0.76557025  0.33398989    -0.84180
C10         C  0.20675899  0.76093129  0.27442059     0.96580
C11         C  0.20246268  0.67368589  0.32544539     1.04020
O12         O  0.16936882  0.75270673  0.33843658    -1.13160
O13         O  0.10648858  0.72169316  0.38520737    -0.75600
O14         O  0.07979264  0.66351818  0.35214971    -0.79080
O15         O  0.23349572  0.79234116  0.29317480    -0.79770
C16         C  0.07867377  0.67940331  0.37727847     0.95490
O17         O  0.08912892  0.71948171  0.29914983    -0.77730
O18         O  0.19691592  0.79896157  0.39462859    -0.82920
C19         C  0.22838457  0.87050910  0.34548644     0.98110
C20         C  0.22208955  0.78016718  0.40066414     1.04030
O21         O  0.25171382  0.84883541  0.34697485    -0.78570
C22         C  0.07073623  0.74165583  0.31022242     1.02330
Fe23       Fe  0.70533446  0.57900406  0.23491971     1.65780
Fe24       Fe  0.79850918  0.66056157  0.27405737     1.73250
Fe25       Fe  0.79534996  0.56130186  0.25352059     1.54420
O26         O  0.73506930  0.49699107  0.24037476    -0.82300
O27         O  0.86157259  0.68250694  0.25430376    -0.80610
O28         O  0.68143954  0.51347454  0.25262572    -0.84810
O29         O  0.73408122  0.56579559  0.19775494    -0.79660
O30         O  0.78146515  0.54953005  0.29792857    -0.81440
O31         O  0.78252406  0.69875181  0.24324055    -0.84180
C32         C  0.77401546  0.57010450  0.19096931     0.96580
C33         C  0.69220281  0.48568235  0.24100603     1.04020
O34         O  0.76656831  0.60140978  0.25325605    -1.13160
O35         O  0.73963264  0.64346848  0.29520788    -0.75600
O36         O  0.67471976  0.59173796  0.27096307    -0.79080
O37         O  0.80559431  0.57508035  0.20978735    -0.79770
C38         C  0.69533600  0.61885990  0.29275524     0.95490
O39         O  0.72139160  0.64368193  0.21697790    -0.77730
O40         O  0.81367098  0.62705462  0.30864779    -0.82920
C41         C  0.88439766  0.66223826  0.26127519     0.98110
C42         C  0.79459967  0.58334097  0.31648650     1.04030
O43         O  0.86361783  0.61730467  0.26433616    -0.78570
C44         C  0.74949391  0.68662345  0.22415940     1.02330
Fe45       Fe  0.58880079  0.89081244  0.14547991     1.65780
Fe46       Fe  0.66368038  0.88008076  0.19251527     1.73250
Fe47       Fe  0.56843922  0.78252008  0.16566067     1.54410
O48         O  0.50598922  0.78029153  0.15246306    -0.82300
O49         O  0.68955602  0.83988655  0.17444343    -0.80610
O50         O  0.52085727  0.85322208  0.16005493    -0.84810
O51         O  0.57360888  0.84697103  0.10933531    -0.79660
O52         O  0.55354532  0.78119366  0.20974323    -0.81440
O53         O  0.70445880  0.93580112  0.16351808    -0.84180
C54         C  0.57789889  0.81133586  0.10278590     0.96580
C55         C  0.49289735  0.81077250  0.15261474     1.04020
O56         O  0.60763364  0.85178018  0.16755032    -1.13160
O57         O  0.64271377  0.92147723  0.21312116    -0.75600
O58         O  0.60283181  0.93795494  0.17937205    -0.79080
O59         O  0.58338891  0.78553434  0.12191015    -0.79770
C60         C  0.62223481  0.94357182  0.20444094     0.95490
O61         O  0.65492567  0.93406527  0.12893505    -0.77730
O62         O  0.62821265  0.82964283  0.22517989    -0.82920
C63         C  0.66820935  0.79524102  0.17796246     0.98110
C64         C  0.58469776  0.80026050  0.23015217     1.04030
O65         O  0.62338790  0.77056653  0.17743729    -0.78570
C66         C  0.69607107  0.95214648  0.14009398     1.02330
Fe67       Fe  0.58089611  0.69227539  0.43999582     1.65780
Fe68       Fe  0.65264627  0.77479173  0.39320859     1.73250
Fe69       Fe  0.56069563  0.77917913  0.41811631     1.54420
O70         O  0.49762767  0.71643752  0.42946970    -0.82300
O71         O  0.68401843  0.84114797  0.41152922    -0.80610
O72         O  0.51677265  0.66277897  0.41939513    -0.84810
O73         O  0.55996312  0.71866022  0.47451504    -0.79660
O74         O  0.54642642  0.76563077  0.37354680    -0.81440
O75         O  0.69101443  0.75493193  0.42273163    -0.84180
C76         C  0.56709913  0.75976120  0.48119920     0.96580
C77         C  0.48773716  0.67331540  0.42935749     1.04020
O78         O  0.59974532  0.75035957  0.41843334    -1.13160
O79         O  0.61907190  0.71128834  0.37247746    -0.75600
O80         O  0.60289690  0.66071519  0.40888913    -0.79080
O81         O  0.57471611  0.79142760  0.46197943    -0.79770
C82         C  0.61492270  0.67347363  0.38262936     0.95490
O83         O  0.64478910  0.71986431  0.46073503    -0.77730
O84         O  0.62153267  0.79585042  0.36079941    -0.82920
C85         C  0.66411105  0.86590234  0.40958338     0.98110
C86         C  0.57840105  0.78080229  0.35424489     1.04030
O87         O  0.61910065  0.84691004  0.40909242    -0.78570
C88         C  0.68424786  0.73642527  0.44841375     1.02330
Fe89       Fe  0.31784097  0.42890089  0.48282865     1.65780
Fe90       Fe  0.23192249  0.34917788  0.02573458     1.73250
Fe91       Fe  0.22950938  0.44540449  0.50108103     1.54420
O92         O  0.29083576  0.51026467  0.49053409    -0.82300
O93         O  0.16633474  0.32144577  0.00575009    -0.80610
O94         O  0.34463039  0.49284498  0.50302734    -0.84810
O95         O  0.29204184  0.44874986  0.44671808    -0.79660
O96         O  0.24089476  0.45753066  0.04593247    -0.81440
O97         O  0.25236254  0.31249978  0.99690029    -0.84180
C98         C  0.25116449  0.44057060  0.43868564     0.96580
C99         C  0.33401819  0.52242754  0.49322928     1.04020
O100        O  0.25904617  0.40653582  0.00252291    -1.13160
O101        O  0.29317609  0.37400141  0.04907987    -0.75600
O102        O  0.34996779  0.41185077  0.01651972    -0.79080
O103        O  0.21894434  0.43219284  0.45700608    -0.79770
C104        C  0.33616664  0.39600003  0.04211602     0.95490
O105        O  0.29451574  0.36537224  0.46237062    -0.77730
O106        O  0.21246013  0.38087254  0.05750526    -0.82920
C107        C  0.14255615  0.34210681  0.00870029     0.98110
C108        C  0.22479519  0.42356269  0.06452102     1.04030
O109        O  0.16242687  0.38734411  0.00938943    -0.78570
C110        C  0.27687843  0.32435759  0.47361932     1.02330
Fe111      Fe  0.89459762  0.31827887  0.06496620     1.65780
Fe112      Fe  0.89753774  0.23901572  0.11157054     1.73250
Fe113      Fe  0.79299197  0.22796341  0.09026039     1.54420
O114        O  0.78511278  0.28609086  0.07669221    -0.82300
O115        O  0.85650357  0.16961105  0.09775563    -0.80610
O116        O  0.85699487  0.34442348  0.08400248    -0.84810
O117        O  0.84559823  0.28366101  0.03103670    -0.79660
O118        O  0.79764590  0.24439634  0.13462152    -0.81440
O119        O  0.94632534  0.25167345  0.07815888    -0.84180
C120        C  0.81082838  0.24186413  0.02598933     0.96580
C121        C  0.81547611  0.33010995  0.07555270     1.04020
O122        O  0.86227248  0.26114042  0.08844651    -1.13160
O123        O  0.94078441  0.30459826  0.12856908    -0.75600
O124        O  0.94610588  0.35807037  0.09578122    -0.79080
O125        O  0.78947117  0.21165292  0.04634891    -0.79770
C126        C  0.95737487  0.34695481  0.11994620     0.95490
O127        O  0.93738535  0.29805109  0.04569691    -0.77730
O128        O  0.85430985  0.22777307  0.14763398    -0.82920
C129        C  0.81261212  0.14464167  0.10219434     0.98110
C130        C  0.82180379  0.23682915  0.15403342     1.04030
O131        O  0.78615094  0.16267887  0.10221197    -0.78570
C132        C  0.95785378  0.27588689  0.05437739     1.02330
Fe133      Fe  0.44815792  0.12655700  0.40047426     1.65780
Fe134      Fe  0.36335715  0.13537598  0.43625043     1.73250
Fe135      Fe  0.46414831  0.23308440  0.41841838     1.54420
O136        O  0.52762694  0.23807421  0.40702972    -0.82300
O137        O  0.34271707  0.18090892  0.41867253    -0.80610
O138        O  0.51498457  0.16727506  0.41755741    -0.84810
O139        O  0.46131867  0.16906501  0.36284539    -0.79660
O140        O  0.47334878  0.22865280  0.46340280    -0.81440
O141        O  0.32683612  0.08499793  0.40271331    -0.84180
C142        C  0.45667728  0.20486492  0.35566752     0.96580
C143        C  0.54181715  0.20871521  0.40850151     1.04020
O144        O  0.42431291  0.16422369  0.41772745    -1.13160
O145        O  0.37706974  0.08912915  0.45702092    -0.75600
O146        O  0.43471524  0.08252998  0.43690339    -0.79080
O147        O  0.45194927  0.23142808  0.37422328    -0.79770
C148        C  0.40393938  0.07191083  0.45651486     0.95490
O149        O  0.38442761  0.07869111  0.38230677    -0.77730
O150        O  0.39590994  0.18028018  0.47221617    -0.82920
C151        C  0.36555072  0.22405053  0.42651162     0.98110
C152        C  0.43883392  0.20649975  0.48108195     1.04030
O153        O  0.41012623  0.24554602  0.42793848    -0.78570
C154        C  0.34100060  0.06454957  0.38516805     1.02330
Fe155      Fe  0.70019449  0.12110192  0.35537194     1.65780
Fe156      Fe  0.79202509  0.13071778  0.31719633     1.73250
Fe157      Fe  0.79580908  0.22859762  0.34290145     1.54410
O158        O  0.73755928  0.23445956  0.35387909    -0.82300
O159        O  0.85567864  0.16878970  0.33878553    -0.80610
O160        O  0.67722412  0.16576043  0.34076552    -0.84810
O161        O  0.72761194  0.15820675  0.39492672    -0.79660
O162        O  0.78731080  0.23405625  0.29802589    -0.81440
O163        O  0.77418993  0.07528507  0.34709239    -0.84180
C164        C  0.76791063  0.19205102  0.40396971     0.96580
C165        C  0.69356418  0.20682120  0.35113797     1.04020
O166        O  0.76244517  0.15938697  0.33876045    -1.13160
O167        O  0.73255357  0.09044992  0.29339506    -0.75600
O168        O  0.67006001  0.08215188  0.31705629    -0.79080
O169        O  0.80168036  0.21934927  0.38698652    -0.79770
C170        C  0.68877202  0.07509886  0.29493524     0.95490
O171        O  0.71396512  0.07050488  0.37146001    -0.77730
O172        O  0.81004262  0.18238859  0.28427444    -0.82920
C173        C  0.88084822  0.21299333  0.33495030     0.98110
C174        C  0.79940136  0.21447227  0.27842827     1.04030
O175        O  0.86278066  0.23935299  0.33436795    -0.78570
C176        C  0.74200176  0.05560292  0.36616164     1.02330
Fe177      Fe  0.31840757  0.88898752  0.10989300     1.65780
Fe178      Fe  0.24003833  0.87924056  0.05929292     1.73250
Fe179      Fe  0.22888819  0.78157713  0.08917304     1.54410
O180        O  0.28982116  0.77970924  0.10206357    -0.82300
O181        O  0.17216867  0.84757917  0.07427760    -0.80610
O182        O  0.34872725  0.85272286  0.09321306    -0.84810
O183        O  0.29064829  0.84181930  0.14488361    -0.79660
O184        O  0.24348522  0.77780438  0.04526983    -0.81440
O185        O  0.26139122  0.93982055  0.08670116    -0.84180
C186        C  0.24921088  0.80924059  0.15192157     0.96580
C187        C  0.33379542  0.80993892  0.10056237     1.04020
O188        O  0.26044269  0.84983602  0.08755443    -1.13160
O189        O  0.30417240  0.90308723  0.04256522    -0.75600
O190        O  0.35259396  0.94354191  0.07811637    -0.79080
O191        O  0.21677783  0.78608913  0.13276938    -0.79770
C192        C  0.34000324  0.93986009  0.05140368     0.95490
O193        O  0.29040636  0.92616139  0.12754592    -0.77730
O194        O  0.21892665  0.82588903  0.02828325    -0.82920
C195        C  0.14599780  0.80245608  0.07419972     0.98110
C196        C  0.23394685  0.79735990  0.02404541     1.04030
O197        O  0.16301446  0.77482352  0.07744888    -0.78570
C198        C  0.27765713  0.95115084  0.11300580     1.02330
Fe199      Fe  0.12590501  0.42728574  0.27150768     1.65780
Fe200      Fe  0.13295100  0.34531115  0.23147890     1.73250
Fe201      Fe  0.23138834  0.44450883  0.25246211     1.54410
O202        O  0.23608432  0.50927169  0.26450939    -0.82300
O203        O  0.17450153  0.32203229  0.25159650    -0.80610
O204        O  0.16545810  0.49079774  0.25141661    -0.84810
O205        O  0.17081050  0.44377378  0.30780590    -0.79660
O206        O  0.22641813  0.45467393  0.20741686    -0.81440
O207        O  0.07997536  0.30888738  0.26218402    -0.84180
C208        C  0.20578681  0.43870527  0.31533774     0.96580
C209        C  0.20435551  0.52027622  0.26263735     1.04020
O210        O  0.16257029  0.40410034  0.25296850    -1.13160
O211        O  0.09214166  0.36566443  0.20821630    -0.75600
O212        O  0.07988810  0.41321049  0.23697663    -0.79080
O213        O  0.23112572  0.43250815  0.29680184    -0.79770
C214        C  0.07485274  0.39204348  0.21294528     0.95490
O215        O  0.08006573  0.36382790  0.29102394    -0.77730
O216        O  0.18176157  0.37681382  0.19849851    -0.82920
C217        C  0.21763402  0.34273776  0.24463662     0.98110
C218        C  0.20526271  0.41965568  0.18950525     1.04030
O219        O  0.24189710  0.38783843  0.24242519    -0.78570
C220        C  0.06257599  0.32096822  0.28287106     1.02330
Fe221      Fe  0.89366790  0.58507134  0.02650233     1.65780
Fe222      Fe  0.88061072  0.65297247  0.47710600     1.73250
Fe223      Fe  0.78556237  0.56175821  0.00519315     1.54420
O224        O  0.78544240  0.49919221  0.01790243    -0.82300
O225        O  0.84733594  0.68603956  0.49433806    -0.80610
O226        O  0.85888292  0.51763854  0.00994107    -0.84810
O227        O  0.84780729  0.56598754  0.06184984    -0.79660
O228        O  0.78324174  0.54425359  0.46124969    -0.81440
O229        O  0.94223061  0.69388564  0.00385135    -0.84180
C230        C  0.81311954  0.57181349  0.06804728     0.96580
C231        C  0.81702191  0.48750778  0.01685971     1.04020
O232        O  0.85329426  0.60149513  0.00429787    -1.13160
O233        O  0.90694999  0.61666328  0.45752870    -0.75600
O234        O  0.94539611  0.60518119  0.49357490    -0.79080
O235        O  0.78863560  0.57800132  0.04848579    -0.79770
C236        C  0.94191737  0.61455499  0.46680834     0.95490
O237        O  0.93056171  0.65141905  0.04427585    -0.77730
O238        O  0.82620093  0.61938694  0.44677976    -0.82920
C239        C  0.80249108  0.66536945  0.49244923     0.98110
C240        C  0.79945653  0.57547891  0.44111134     1.04030
O241        O  0.77629901  0.61995379  0.49409117    -0.78570
C242        C  0.95491612  0.68923989  0.02984239     1.02330
Fe243      Fe  0.43063858  0.31303547  0.19208411     1.65780
Fe244      Fe  0.36108236  0.23251241  0.14156037     1.73250
Fe245      Fe  0.45472320  0.22949004  0.16955404     1.54420
O246        O  0.51759169  0.29220530  0.18160046    -0.82300
O247        O  0.33194525  0.16527874  0.15894273    -0.80610
O248        O  0.49839864  0.34787702  0.17792318    -0.84810
O249        O  0.44737355  0.28370916  0.22760630    -0.79660
O250        O  0.46968920  0.24387077  0.12526767    -0.81440
O251        O  0.32022653  0.24917869  0.16869084    -0.84180
C252        C  0.44511375  0.24414276  0.23324047     0.96580
C253        C  0.52888829  0.33575285  0.18238952     1.04020
O254        O  0.41487449  0.25791562  0.16825824    -1.13160
O255        O  0.38851766  0.29661624  0.12156440    -0.75600
O256        O  0.41610925  0.34821447  0.15869073    -0.79080
O257        O  0.44089787  0.21502779  0.21333619    -0.79770
C258        C  0.40558620  0.33818328  0.13172016     0.95490
O259        O  0.36387601  0.28376014  0.20846708    -0.77730
O260        O  0.39500462  0.21499173  0.11031215    -0.82920
C261        C  0.35291892  0.14160836  0.15735128     0.98110
C262        C  0.43789900  0.22802152  0.10520961     1.04030
O263        O  0.39787687  0.16160716  0.15883869    -0.78570
C264        C  0.32560329  0.26763817  0.19402945     1.02330
C265        C  0.24482793  0.31779439  0.20224872    -0.26950
C266        C  0.23796210  0.31492203  0.23263965    -0.15020
C267        C  0.25466598  0.29011146  0.24996845     0.35610
C268        C  0.28014038  0.27133218  0.23654379    -0.26390
C269        C  0.28868084  0.27604932  0.20619003    -0.15630
C270        C  0.26962932  0.29855970  0.18881302     0.36700
N271        N  0.27894511  0.30549704  0.15795345    -0.89880
H272        H  0.23220249  0.33686622  0.18890774     0.17810
H273        H  0.29508546  0.25462125  0.25013241     0.17800
N274        N  0.24799536  0.28470007  0.28108896    -0.88910
H275        H  0.26549914  0.32584528  0.14876839     0.35180
H276        H  0.26045381  0.27212569  0.14791806     0.40280
H277        H  0.22855492  0.29980766  0.28841322     0.39900
H278        H  0.28128540  0.30338470  0.29121645     0.34790
C279        C  0.01330381  0.71711736  0.07174002    -0.26950
C280        C  0.00121059  0.72590629  0.04342694    -0.15020
C281        C  0.03609403  0.76528072  0.02777107     0.35610
C282        C  0.08219287  0.79247273  0.03966547    -0.26390
C283        C  0.09489584  0.78078715  0.06676813    -0.15630
C284        C  0.05934041  0.74360655  0.08346642     0.36700
N285        N  0.06869498  0.73088997  0.11203423    -0.89880
H286        H  0.98726681  0.68775189  0.08463071     0.17810
H287        H  0.10910192  0.82089764  0.02661386     0.17800
N288        N  0.02581835  0.77651979  0.49919832    -0.88910
H289        H  0.04713411  0.73505141  0.12685249     0.35180
H290        H  0.10329946  0.75415722  0.11906525     0.40280
H291        H  0.03282308  0.81159056  0.49953602     0.39900
H292        H  0.04880262  0.77469118  0.48441186     0.34790
C293        C  0.29764668  0.07661526  0.12393358    -0.26950
C294        C  0.32528008  0.09033439  0.14980624    -0.15020
C295        C  0.33106891  0.05622208  0.16547656     0.35610
C296        C  0.31119616  0.00984724  0.15419156    -0.26390
C297        C  0.28707442  0.99687458  0.12683174    -0.15630
C298        C  0.27870182  0.03043212  0.11215219     0.36700
N299        N  0.25284191  0.01843249  0.08482690    -0.89880
H300        H  0.29323668  0.10298502  0.11190061     0.17810
H301        H  0.31721660  0.98454355  0.16622471     0.17800
N302        N  0.35728748  0.06875687  0.19272106    -0.88910
H303        H  0.25107558  0.04752088  0.07651815     0.35180
H304        H  0.21814762  0.99188629  0.08913054     0.40280
H305        H  0.39274039  0.09234698  0.18810370     0.39900
H306        H  0.35607323  0.03889465  0.20230892     0.34790
C307        C  0.01337994  0.29078154  0.32736731    -0.26950
C308        C  0.01827760  0.28503355  0.29724394    -0.15020
C309        C  0.97774449  0.25103456  0.28103247     0.35610
C310        C  0.93482731  0.22424358  0.29545302    -0.26390
C311        C  0.92955495  0.23282546  0.32470201    -0.15630
C312        C  0.96920018  0.26567762  0.34108908     0.36700
N313        N  0.96408872  0.27456715  0.37117265    -0.89880
H314        H  0.04370958  0.31700828  0.33986041     0.17810
H315        H  0.90391068  0.19951282  0.28273780     0.17800
N316        N  0.97671416  0.24492141  0.24974283    -0.88910
H317        H  0.99663859  0.30011481  0.38013547     0.35180
H318        H  0.95359834  0.24306555  0.38280806     0.40280
H319        H  0.00807505  0.26885376  0.23974759     0.39900
H320        H  0.95160017  0.25244417  0.24084538     0.34790
C321        C  0.58741570  0.22062127  0.36400659    -0.26950
C322        C  0.58658316  0.21981064  0.39479473    -0.15020
C323        C  0.62475640  0.22163196  0.41070220     0.35610
C324        C  0.66169842  0.22218484  0.39535052    -0.26390
C325        C  0.66067151  0.21924909  0.36459175    -0.15630
C326        C  0.62339391  0.21930961  0.34869572     0.36700
N327        N  0.62044841  0.21732037  0.31723626    -0.89880
H328        H  0.55817641  0.21914656  0.35166463     0.17810
H329        H  0.68988477  0.22153032  0.40771209     0.17800
N330        N  0.62642110  0.22114974  0.44219377    -0.88910
H331        H  0.59100471  0.18473472  0.31129161     0.35180
H332        H  0.64994154  0.21837719  0.30820044     0.40280
H333        H  0.59754107  0.22150725  0.45109923     0.39900
H334        H  0.65636408  0.25270006  0.44901702     0.34790
C335        C  0.34529743  0.00739124  0.48470087    -0.26950
C336        C  0.39355794  0.03572978  0.47924624    -0.15020
C337        C  0.42669985  0.03453798  0.99924291     0.35610
C338        C  0.40977528  0.00427623  0.02397779    -0.26390
C339        C  0.36115126  0.97804734  0.02955206    -0.15630
C340        C  0.32927981  0.98187852  0.01024346     0.36700
N341        N  0.27988586  0.95959462  0.01660887    -0.89880
H342        H  0.31926436  0.00783013  0.46988226     0.17810
H343        H  0.43439302  0.00120053  0.03866002     0.17800
N344        N  0.47684023  0.06399191  0.99592222    -0.88910
H345        H  0.27068542  0.98597435  0.51728177     0.35180
H346        H  0.26070263  0.93621191  0.99951549     0.40280
H347        H  0.48518826  0.08568511  0.47747865     0.39900
H348        H  0.49042813  0.04150478  0.99264009     0.34790
C349        C  0.48032140  0.25361436  0.02665196    -0.26950
C350        C  0.44672827  0.21052858  0.01336945    -0.15020
C351        C  0.41718284  0.17155071  0.03145143     0.35610
C352        C  0.41807888  0.17754225  0.06172149    -0.26390
C353        C  0.44847253  0.22150809  0.07484409    -0.15630
C354        C  0.48163636  0.25939464  0.05743793     0.36700
N355        N  0.51422529  0.30423342  0.07077002    -0.89880
H356        H  0.50366313  0.28342193  0.01299144     0.17810
H357        H  0.39313623  0.14796293  0.07501452     0.17800
N358        N  0.38526815  0.12575394  0.01911292    -0.88910
H359        H  0.53523959  0.32877449  0.05485616     0.35180
H360        H  0.53697657  0.29880221  0.08443028     0.40280
H361        H  0.35094914  0.11611158  0.52506197     0.39900
H362        H  0.39317425  0.10108045  0.02838919     0.34790
C363        C  0.47070336  0.27068582  0.28439669    -0.26950
C364        C  0.44867550  0.23287231  0.26432099    -0.15020
C365        C  0.43065159  0.18571585  0.27436917     0.35610
C366        C  0.43509283  0.17765201  0.30421193    -0.26390
C367        C  0.45617114  0.21547972  0.32425528    -0.15630
C368        C  0.47481578  0.26256716  0.31418111     0.36700
N369        N  0.49836815  0.30200241  0.33412700    -0.89880
H370        H  0.48530288  0.30698631  0.27679684     0.17810
H371        H  0.42054112  0.14146805  0.31204283     0.17800
N372        N  0.40691906  0.14615694  0.25453697    -0.88910
H373        H  0.50970511  0.33425577  0.32319385     0.35180
H374        H  0.52875372  0.30260130  0.34205027     0.40280
H375        H  0.37593951  0.14487498  0.24718339     0.39900
H376        H  0.39649593  0.11405194  0.26543487     0.34790
C377        C  0.83801014  0.38674285  0.03522311    -0.26950
C378        C  0.80712464  0.36416537  0.05847638    -0.15020
C379        C  0.77364964  0.37778648  0.06514087     0.35610
C380        C  0.77435976  0.41575866  0.04942634    -0.26390
C381        C  0.80739137  0.43993807  0.02713158    -0.15630
C382        C  0.83772872  0.42325623  0.01918371     0.36700
N383        N  0.86961324  0.44438422  0.49533071    -0.89880
H384        H  0.86381966  0.37671304  0.02984034     0.17810
H385        H  0.75107017  0.42839154  0.05604728     0.17800
N386        N  0.74111984  0.35670374  0.08877818    -0.88910
H387        H  0.86246118  0.41769596  0.48010665     0.35180
H388        H  0.90403128  0.45761431  0.50340270     0.40280
H389        H  0.74486582  0.33013138  0.09920367     0.39900
H390        H  0.70700631  0.34016828  0.07971965     0.34790
C391        C  0.06815592  0.40646571  0.16081232    -0.26950
C392        C  0.04883273  0.39859909  0.18881387    -0.15020
C393        C  0.00342531  0.39181597  0.19239991     0.35610
C394        C  0.97537513  0.38508588  0.16736966    -0.26390
C395        C  0.99187766  0.38332140  0.13952404    -0.15630
C396        C  0.03997498  0.39839833  0.13590102     0.36700
N397        N  0.05963435  0.39997080  0.10773460    -0.89880
H398        H  0.10442423  0.41529906  0.15830881     0.17810
H399        H  0.93847018  0.37412126  0.16986925     0.17800
N400        N  0.98461385  0.38756100  0.22114838    -0.88910
H401        H  0.08765867  0.43462998  0.10463462     0.35180
H402        H  0.03526639  0.39387583  0.09090741     0.40280
H403        H  0.98029576  0.35622058  0.23053000     0.39900
H404        H  0.95112860  0.38388645  0.21969111     0.34790
C405        C  0.76451748  0.19753580  0.22839468    -0.26950
C406        C  0.80158322  0.22839390  0.24725232    -0.15020
C407        C  0.84308041  0.26619065  0.23505711     0.35610
C408        C  0.84780921  0.26977843  0.20441973    -0.26390
C409        C  0.81183098  0.23706969  0.18559766    -0.15630
C410        C  0.76931722  0.20123151  0.19769460     0.36700
N411        N  0.73219886  0.16731792  0.17883677    -0.89880
H412        H  0.73251870  0.16904737  0.23775528     0.17810
H413        H  0.88062648  0.29734103  0.19525515     0.17800
N414        N  0.88175657  0.30028001  0.25295654    -0.88910
H415        H  0.70336894  0.14302754  0.19116651     0.35180
H416        H  0.74496916  0.14787512  0.16821682     0.40280
H417        H  0.87487080  0.29351610  0.27523437     0.39900
H418        H  0.88490271  0.33341854  0.24904434     0.34790
C419        C  0.79028901  0.24886274  0.44435719    -0.26950
C420        C  0.77502610  0.20232590  0.43550548    -0.15020
C421        C  0.76772138  0.16747155  0.45661677     0.35610
C422        C  0.77838520  0.18088610  0.48627145    -0.26390
C423        C  0.79578205  0.22825488  0.49505129    -0.15630
C424        C  0.80040598  0.26215983  0.47364478     0.36700
N425        N  0.81426646  0.31018163  0.48081664    -0.89880
H426        H  0.79458532  0.27536520  0.42822707     0.17810
H427        H  0.77444617  0.15459596  0.50242624     0.17800
N428        N  0.75180604  0.11938786  0.44776039    -0.88910
H429        H  0.84940755  0.32793749  0.48801578     0.35180
H430        H  0.79230743  0.30970363  0.49726542     0.40280
H431        H  0.71706854  0.10470038  0.43998930     0.39900
H432        H  0.75054309  0.09881828  0.46581594     0.34790
C433        C  0.40296887  0.38686112  0.05891271    -0.26950
C434        C  0.37019878  0.40086973  0.06497221    -0.15020
C435        C  0.36345921  0.40986206  0.09416445     0.35610
C436        C  0.38338118  0.39660953  0.11708036    -0.26390
C437        C  0.40898069  0.37417218  0.11089665    -0.15630
C438        C  0.42272789  0.37348451  0.08174001     0.36700
N439        N  0.45348041  0.35575504  0.07455979    -0.89880
H440        H  0.40939922  0.38146138  0.03645606     0.17810
H441        H  0.37363956  0.39794432  0.13946009     0.17800
N442        N  0.33305651  0.42848281  0.10029461    -0.88910
H443        H  0.43327958  0.32327280  0.06369700     0.35180
H444        H  0.46788334  0.34942179  0.09346318     0.40280
H445        H  0.34866305  0.46275425  0.09145448     0.39900
H446        H  0.33096695  0.43201846  0.12287097     0.34790
C447        C  0.24579901  0.46618423  0.14388294    -0.26950
C448        C  0.20780877  0.42628155  0.15711640    -0.15020
C449        C  0.17289302  0.39017623  0.13884116     0.35610
C450        C  0.17770768  0.39342398  0.10861262    -0.26390
C451        C  0.21731181  0.43085768  0.09545158    -0.15630
C452        C  0.25110780  0.46866693  0.11305167     0.36700
N453        N  0.29190267  0.50762413  0.09989728    -0.89880
H454        H  0.27253983  0.49410706  0.15759182     0.17810
H455        H  0.15107911  0.36457742  0.09529759     0.17800
N456        N  0.13294479  0.34874576  0.15073600    -0.89470
H457        H  0.31418139  0.53143460  0.11597900     0.35180
H458        H  0.28022056  0.52623946  0.08679590     0.40280
H459        H  0.13468288  0.31889948  0.14441005     0.39900
H460        H  0.10217269  0.34556325  0.14139980     0.34790
C461        C  0.26157532  0.44741312  0.35550286    -0.26950
C462        C  0.21732249  0.44059521  0.34699423    -0.15020
C463        C  0.18456800  0.43449063  0.36885857     0.35610
C464        C  0.19684128  0.43481934  0.39839513    -0.26390
C465        C  0.24095031  0.44125202  0.40695748    -0.15630
C466        C  0.27375544  0.44746366  0.38508858     0.36700
N467        N  0.31909719  0.45326234  0.39269259    -0.89880
H468        H  0.28683758  0.45223154  0.33893819     0.17810
H469        H  0.17145121  0.43003614  0.41485422     0.17800
N470        N  0.13853387  0.42695288  0.36126908    -0.88910
H471        H  0.33973040  0.46026564  0.37409213     0.35180
H472        H  0.31325316  0.42067267  0.40089323     0.40280
H473        H  0.14303537  0.45956929  0.35414693     0.39900
H474        H  0.11725291  0.41767603  0.37973225     0.34790
C475        C  0.02674502  0.26309838  0.04731835    -0.26950
C476        C  0.99952128  0.28278649  0.03714269    -0.15020
C477        C  0.01686305  0.31511748  0.01313042     0.35610
C478        C  0.06240978  0.33081766  0.00263618    -0.26390
C479        C  0.09107972  0.31438397  0.01461194    -0.15630
C480        C  0.07227531  0.27851938  0.03633500     0.36700
N481        N  0.10052218  0.26016341  0.04861179    -0.89880
H482        H  0.01389396  0.23789007  0.06525304     0.17810
H483        H  0.07662746  0.35795053  0.98577699     0.17800
N484        N  0.98944284  0.33406994  0.00029866    -0.88910
H485        H  0.08127912  0.23351370  0.06394298     0.35180
H486        H  0.12874190  0.28778213  0.06012939     0.40280
H487        H  0.95989982  0.30589257  0.99006558     0.39900
H488        H  0.00815732  0.35873911  0.98385277     0.34790
C489        C  0.29173377  0.22885753  0.43487889    -0.26950
C490        C  0.34124411  0.24920753  0.43765303    -0.15020
C491        C  0.36725801  0.29242594  0.45364242     0.35610
C492        C  0.34398727  0.31445479  0.46505609    -0.26390
C493        C  0.29521050  0.29468258  0.46209889    -0.15630
C494        C  0.26842238  0.25136025  0.44698315     0.36700
N495        N  0.21823535  0.23075880  0.44379573    -0.89880
H496        H  0.27124227  0.19545639  0.42331528     0.17810
H497        H  0.36435474  0.34766811  0.47692316     0.17800
N498        N  0.41722239  0.31364623  0.45917699    -0.88910
H499        H  0.20372925  0.19883535  0.43211270     0.35180
H500        H  0.21210905  0.25406801  0.43113429     0.40280
H501        H  0.42182648  0.29190997  0.47426224     0.39900
H502        H  0.43113054  0.34683002  0.46930913     0.34790
C503        C  0.40283912  0.63221037  0.44484798    -0.26950
C504        C  0.44776824  0.63692888  0.44664550    -0.15020
C505        C  0.45589128  0.60887783  0.46712199     0.35610
C506        C  0.41896331  0.57610436  0.48448788    -0.26390
C507        C  0.37279638  0.56772328  0.48089209    -0.15630
C508        C  0.36489514  0.59720597  0.46138809     0.36700
N509        N  0.31839789  0.59054788  0.45760893    -0.89880
H510        H  0.39700122  0.65472236  0.42981442     0.17810
H511        H  0.42600238  0.55464767  0.49971772     0.17800
N512        N  0.50188155  0.61388751  0.47055896    -0.88910
H513        H  0.31846642  0.61418969  0.44193727     0.35180
H514        H  0.30926725  0.59933603  0.47743773     0.40280
H515        H  0.50722751  0.59793452  0.45242156     0.39900
H516        H  0.50315792  0.59492040  0.48881155     0.34790
C517        C  0.72767296  0.93389914  0.38224291    -0.26950
C518        C  0.69333995  0.91765307  0.40412514    -0.15020
C519        C  0.68233914  0.94981426  0.41685592     0.35610
C520        C  0.70276678  0.99638754  0.40607074    -0.26390
C521        C  0.73327620  0.01153364  0.38193748    -0.15630
C522        C  0.74769231  0.98047089  0.37087214     0.36700
N523        N  0.77989377  0.99487488  0.34691718    -0.89880
H524        H  0.73629657  0.90910279  0.37246160     0.17810
H525        H  0.69214807  0.01984812  0.41555405     0.17800
N526        N  0.64919966  0.93479182  0.44017938    -0.88910
H527        H  0.78492434  0.96702709  0.34052934     0.35180
H528        H  0.81267563  0.02200867  0.35460408     0.40280
H529        H  0.62139098  0.93981734  0.43349468     0.39900
H530        H  0.66605857  0.95682414  0.45822766     0.34790
C531        C  0.76171096  0.73794889  0.44823503    -0.26950
C532        C  0.72122918  0.72911436  0.46350352    -0.15020
C533        C  0.71313989  0.70642742  0.49134383     0.35610
C534        C  0.74162583  0.68790626  0.50108512    -0.26390
C535        C  0.77961651  0.69350215  0.48463802    -0.15630
C536        C  0.79096723  0.72049500  0.45848769     0.36700
N537        N  0.83042074  0.72762211  0.44143796    -0.89880
H538        H  0.76905865  0.75599223  0.42730173     0.17810
H539        H  0.73340384  0.66784397  0.02133908     0.17800
N540        N  0.67504804  0.70065428  0.00930250    -0.88910
H541        H  0.83475629  0.74926959  0.42332847     0.35180
H542        H  0.82233666  0.69459637  0.43302883     0.40280
H543        H  0.68256515  0.73462611  0.51552366     0.39900
H544        H  0.67344876  0.68248948  0.02864338     0.34790
C545        C  0.36963298  0.79125032  0.14250246    -0.26950
C546        C  0.36859658  0.79772424  0.11203714    -0.15020
C547        C  0.40596996  0.80201394  0.09490441     0.35610
C548        C  0.44442284  0.80210581  0.10886106    -0.26390
C549        C  0.44702796  0.79923613  0.13948330    -0.15630
C550        C  0.40908064  0.79305670  0.15650945     0.36700
N551        N  0.41137349  0.79012424  0.18786941    -0.89880
H552        H  0.34123914  0.78860190  0.15566224     0.17810
H553        H  0.47389383  0.80731022  0.09576276     0.17800
N554        N  0.40696838  0.80810275  0.06363141    -0.88910
H555        H  0.38032210  0.78523708  0.19712728     0.35180
H556        H  0.43866076  0.82289681  0.19552189     0.40280
H557        H  0.37606347  0.80624950  0.05568199     0.39900
H558        H  0.40789201  0.77942545  0.05425788     0.34790
C559        C  0.60095092  0.97194502  0.24864327    -0.26950
C560        C  0.62776771  0.98190691  0.22322305    -0.15020
C561        C  0.66847007  0.02630712  0.21963130     0.35610
C562        C  0.68395522  0.05917258  0.24230848    -0.26390
C563        C  0.66059538  0.04763206  0.26926169    -0.15630
C564        C  0.61686695  0.00502963  0.27184303     0.36700
N565        N  0.59123547  0.99372677  0.29868645    -0.89880
H566        H  0.56984361  0.93714377  0.25126859     0.17810
H567        H  0.71758026  0.09166371  0.23994335     0.17800
N568        N  0.69714684  0.03579085  0.19431623    -0.88910
H569        H  0.56071874  0.96021725  0.29724110     0.35180
H570        H  0.57993554  0.01828018  0.30117873     0.40280
H571        H  0.73069995  0.04317365  0.20132697     0.39900
H572        H  0.70065203  0.06608726  0.18399499     0.34790
C573        C  0.55589760  0.74263956  0.30551855    -0.26950
C574        C  0.56693040  0.78232580  0.32301105    -0.15020
C575        C  0.57762831  0.82570005  0.30935393     0.35610
C576        C  0.57953654  0.82891201  0.27873702    -0.26390
C577        C  0.57129990  0.79014070  0.26123659    -0.15630
C578        C  0.55827992  0.74598619  0.27478074     0.36700
N579        N  0.55008691  0.70486764  0.25845475    -0.89880
H580        H  0.54870376  0.70962151  0.31591126     0.17810
H581        H  0.58994932  0.86294892  0.26852587     0.17800
N582        N  0.58938600  0.86787148  0.32577683    -0.88910
H583        H  0.57650226  0.69732006  0.26448386     0.35180
H584        H  0.55305603  0.71134440  0.23596438     0.40280
H585        H  0.58619004  0.86126937  0.34827170     0.39900
H586        H  0.56460392  0.87787046  0.32011761     0.34790
C587        C  0.55217798  0.75059077  0.06396327    -0.26950
C588        C  0.57463581  0.79873255  0.07163517    -0.15020
C589        C  0.59257343  0.83376342  0.04945398     0.35610
C590        C  0.58937183  0.81974541  0.02023947    -0.26390
C591        C  0.56746055  0.77153371  0.01244711    -0.15630
C592        C  0.54787991  0.73652496  0.03479605     0.36700
N593        N  0.52249511  0.68651499  0.02883137    -0.89880
H594        H  0.53715150  0.72347516  0.08080033     0.17810
H595        H  0.60445304  0.84693422  0.00346740     0.17800
N596        N  0.61513490  0.88347753  0.05654911    -0.88910
H597        H  0.54551016  0.67667491  0.02011245     0.35180
H598        H  0.49510449  0.67911805  0.01390389     0.40280
H599        H  0.58878091  0.89058063  0.06264897     0.39900
H600        H  0.63049710  0.90432119  0.03797310     0.34790
C601        C  0.77166932  0.02983869  0.14475840    -0.26950
C602        C  0.73411748  0.99719732  0.12683328    -0.15020
C603        C  0.72863497  0.01212600  0.09851034     0.35610
C604        C  0.75671300  0.06014947  0.09031885    -0.26390
C605        C  0.79135721  0.09349406  0.10930830    -0.15630
C606        C  0.80002255  0.07775364  0.13658129     0.36700
N607        N  0.83509429  0.10950723  0.15736267    -0.89880
H608        H  0.77686961  0.01912399  0.16638887     0.17810
H609        H  0.75047088  0.07202097  0.06934018     0.17800
N610        N  0.69367844  0.97875088  0.07841312    -0.88910
H611        H  0.81742340  0.11114087  0.17574618     0.35180
H612        H  0.85468036  0.14406411  0.14933619     0.40280
H613        H  0.70370519  0.95391454  0.07329928     0.39900
H614        H  0.69363590  0.99546442  0.05875812     0.34790
C615        C  0.60565834  0.36256957  0.20968368    -0.26950
C616        C  0.57723666  0.37375069  0.19161730    -0.15020
C617        C  0.59137331  0.42220370  0.18722202     0.35610
C618        C  0.62954458  0.45731818  0.20340839    -0.26390
C619        C  0.65554315  0.44597623  0.22317478    -0.15630
C620        C  0.64508600  0.39846618  0.22537623     0.36700
N621        N  0.67301078  0.38662185  0.24435792    -0.89880
H622        H  0.59544544  0.32564896  0.21303504     0.17810
H623        H  0.63874108  0.49413268  0.20087749     0.17800
N624        N  0.56589589  0.43561493  0.16706118    -0.88910
H625        H  0.66060934  0.35009897  0.24352481     0.35180
H626        H  0.66841906  0.39423387  0.26582820     0.40280
H627        H  0.57002808  0.42584584  0.14606408     0.39900
H628        H  0.58041371  0.47252566  0.16676834     0.34790
C629        C  0.76482287  0.58823912  0.13945820    -0.26950
C630        C  0.78381292  0.56953524  0.15967875    -0.15020
C631        C  0.81115082  0.55035362  0.14962115     0.35610
C632        C  0.81903929  0.55071300  0.11956111    -0.26390
C633        C  0.80096308  0.57040432  0.09925721    -0.15630
C634        C  0.77313908  0.58916208  0.10956378     0.36700
N635        N  0.75365813  0.61041826  0.09060974    -0.89880
H636        H  0.74390821  0.60316966  0.14699893     0.17810
H637        H  0.83984481  0.53568659  0.11203502     0.17800
N638        N  0.82980222  0.52943095  0.16970101    -0.88910
H639        H  0.72959698  0.58472625  0.07600922     0.35180
H640        H  0.78099100  0.63832536  0.07907259     0.40280
H641        H  0.85798901  0.55720628  0.18114069     0.39900
H642        H  0.84429395  0.51223459  0.15833117     0.34790
C643        C  0.80301793  0.54379295  0.36194932    -0.26950
C644        C  0.78805396  0.57293138  0.34837742    -0.15020
C645        C  0.76883730  0.59440137  0.36587501     0.35610
C646        C  0.76689144  0.58816567  0.39621949    -0.26390
C647        C  0.78607552  0.56328862  0.41007431    -0.15630
C648        C  0.80326421  0.53949502  0.39273594     0.36700
N649        N  0.82422520  0.51382137  0.40542377    -0.89880
H650        H  0.81763057  0.52698952  0.34876480     0.17810
H651        H  0.75428930  0.60681292  0.40949886     0.17800
N652        N  0.75294628  0.62427206  0.35307168    -0.88910
H653        H  0.80384982  0.47840442  0.39865852     0.35180
H654        H  0.82300762  0.51346814  0.42823806     0.40280
H655        H  0.78294340  0.65674483  0.34804918     0.39900
H656        H  0.73468445  0.63220988  0.36842795     0.34790
C657        C  0.60684261  0.60723947  0.35054750    -0.26950
C658        C  0.63453911  0.65172833  0.36419252    -0.15020
C659        C  0.68033317  0.68293319  0.35446734     0.35610
C660        C  0.69644874  0.67172961  0.33008740    -0.26390
C661        C  0.67021769  0.62743753  0.31617269    -0.15630
C662        C  0.62510005  0.59413222  0.32675697     0.36700
N663        N  0.59826376  0.54806667  0.31341162    -0.89880
H664        H  0.57108578  0.58377753  0.35775502     0.17810
H665        H  0.73101176  0.69842471  0.32246795     0.17800
N666        N  0.71009822  0.72781807  0.36860043    -0.88910
H667        H  0.56588068  0.52814866  0.32383371     0.35180
H668        H  0.61685523  0.53017058  0.31700060     0.40280
H669        H  0.71849922  0.75494452  0.35330047     0.39900
H670        H  0.74142178  0.72915734  0.37518762     0.34790
C671        C  0.68448075  0.75413451  0.21723443    -0.26950
C672        C  0.69457566  0.77206807  0.18870313    -0.15020
C673        C  0.72778330  0.76639981  0.17239183     0.35610
C674        C  0.74793370  0.74059204  0.18480873    -0.26390
C675        C  0.73703401  0.72212820  0.21343137    -0.15630
C676        C  0.70583143  0.73052838  0.23003353     0.36700
N677        N  0.69317644  0.71390148  0.25960154    -0.89880
H678        H  0.65948843  0.75870283  0.23000582     0.17810
H679        H  0.77119528  0.73385545  0.17177235     0.17800
N680        N  0.74073044  0.78481450  0.14320259    -0.88910
H681        H  0.70162108  0.74340782  0.27269607     0.35180
H682        H  0.71385790  0.70056506  0.26788154     0.40280
H683        H  0.72320343  0.80258337  0.13639891     0.39900
H684        H  0.72958060  0.75584858  0.12909156     0.34790
C685        C  0.16724880  0.56641169  0.27738348    -0.26950
C686        C  0.20846853  0.56342102  0.27681952    -0.15020
C687        C  0.24900810  0.59799008  0.29240366     0.35610
C688        C  0.24704812  0.63450370  0.30782840    -0.26390
C689        C  0.20484741  0.63558899  0.30926753    -0.15630
C690        C  0.16463248  0.60114346  0.29353364     0.36700
N691        N  0.12095453  0.60151473  0.29368243    -0.89880
H692        H  0.13578811  0.54052451  0.26564014     0.17810
H693        H  0.27804402  0.66123772  0.31955752     0.17800
N694        N  0.29165545  0.59583105  0.29292460    -0.88910
H695        H  0.09409264  0.57198495  0.28262294     0.35180
H696        H  0.12607931  0.63125819  0.28183906     0.40280
H697        H  0.28521947  0.56605813  0.30532954     0.39900
H698        H  0.31863946  0.62527067  0.30398118     0.34790
C699        C  0.01437068  0.67644948  0.40198579    -0.26950
C700        C  0.03935757  0.65309756  0.39709056    -0.15020
C701        C  0.03404782  0.61635928  0.41634319     0.35610
C702        C  0.00297564  0.60393564  0.44015364    -0.26390
C703        C  0.97949476  0.62919793  0.44527619    -0.15630
C704        C  0.98698024  0.66688478  0.42641926     0.36700
N705        N  0.96743347  0.69659856  0.43245252    -0.89880
H706        H  0.01951088  0.70574283  0.38796333     0.17810
H707        H  0.99713343  0.57478141  0.45444174     0.17800
N708        N  0.06009372  0.59220252  0.41287074    -0.88910
H709        H  0.99520535  0.73173430  0.43445803     0.35180
H710        H  0.94624032  0.69481975  0.41456337     0.40280
H711        H  0.08141884  0.60464893  0.39444935     0.39900
H712        H  0.03563604  0.55631608  0.40896413     0.34790
C713        C  0.23222486  0.94462166  0.36473710    -0.26950
C714        C  0.25383043  0.92318918  0.34967126    -0.15020
C715        C  0.30141942  0.95162997  0.34192706     0.35610
C716        C  0.32723575  0.99919543  0.35101829    -0.26390
C717        C  0.30747331  0.01957213  0.36896841    -0.15630
C718        C  0.25853037  0.99241337  0.37458566     0.36700
N719        N  0.23612607  0.01236216  0.39136583    -0.89880
H720        H  0.19538992  0.92318827  0.37048652     0.17810
H721        H  0.36423121  0.01925499  0.34541013     0.17800
N722        N  0.32431795  0.93198499  0.32549176    -0.88910
H723        H  0.20036927  0.98741257  0.39409667     0.35180
H724        H  0.23746757  0.04028483  0.37911361     0.40280
H725        H  0.35302196  0.93560036  0.33793173     0.39900
H726        H  0.33737943  0.95206619  0.30638137     0.34790
C727        C  0.94365721  0.71126366  0.29885720    -0.26950
C728        C  0.93434468  0.69160184  0.27057753    -0.15020
C729        C  0.97210919  0.69669612  0.25363761     0.35610
C730        C  0.01766880  0.71849402  0.26616551    -0.26390
C731        C  0.02655675  0.73441386  0.29552339    -0.15630
C732        C  0.98924922  0.73253373  0.31159259     0.36700
N733        N  0.99674501  0.74881418  0.34141801    -0.89880
H734        H  0.91455409  0.70760744  0.31170779     0.17810
H735        H  0.04594340  0.72030310  0.25328293     0.17800
N736        N  0.96557761  0.67957305  0.22402204    -0.88910
H737        H  0.96511039  0.74245977  0.35058523     0.35180
H738        H  0.01906201  0.78572926  0.34110714     0.40280
H739        H  0.93060113  0.66508809  0.21684299     0.39900
H740        H  0.97330709  0.65213710  0.22369005     0.34790
C741        C  0.26722668  0.82198013  0.44473081    -0.26950
C742        C  0.23414479  0.77903770  0.43173834    -0.15020
C743        C  0.20659695  0.73893680  0.44954676     0.35610
C744        C  0.21008449  0.74398059  0.48033164    -0.26390
C745        C  0.24038859  0.78834106  0.49323358    -0.15630
C746        C  0.27108162  0.82690980  0.47525175     0.36700
N747        N  0.30499322  0.87163473  0.48805328    -0.89880
H748        H  0.28838261  0.85255933  0.43094744     0.17810
H749        H  0.18669257  0.71433722  0.49409367     0.17800
N750        N  0.17365371  0.69404170  0.43636278    -0.88910
H751        H  0.32381385  0.89681517  0.47186946     0.35180
H752        H  0.32954979  0.86617166  0.99972466     0.40280
H753        H  0.14734528  0.69797754  0.42583972     0.39900
H754        H  0.15680664  0.66806563  0.45247559     0.34790
C755        C  0.26262029  0.80643363  0.23496917    -0.26950
C756        C  0.21686798  0.77164809  0.24291918    -0.15020
C757        C  0.18162561  0.74935628  0.22084257     0.35610
C758        C  0.19316534  0.76259647  0.19148758    -0.26390
C759        C  0.23903294  0.79741379  0.18345835    -0.15630
C760        C  0.27417683  0.81991869  0.20570627     0.36700
N761        N  0.32148875  0.85648505  0.19882964    -0.89880
H762        H  0.28971915  0.82364925  0.25178751     0.17810
H763        H  0.16590598  0.74535680  0.17477464     0.17800
N764        N  0.13394306  0.71438833  0.22816601    -0.88910
H765        H  0.34345073  0.86649981  0.21744228     0.35180
H766        H  0.32005299  0.88662757  0.19239184     0.40280
H767        H  0.13383932  0.68328203  0.23413617     0.39900
H768        H  0.11162098  0.70551125  0.20977568     0.34790
Fe769      Fe  0.12830461  0.69396020  0.81825435     1.65780
Fe770      Fe  0.14448931  0.78250556  0.86269264     1.73250
Fe771      Fe  0.23733255  0.77969881  0.83682600     1.54420
O772        O  0.23565868  0.71663855  0.82411311    -0.82300
O773        O  0.18377330  0.84762563  0.84287614    -0.80610
O774        O  0.16405480  0.66411027  0.83672879    -0.84810
O775        O  0.17216955  0.72036444  0.78177465    -0.79660
O776        O  0.23802218  0.76471810  0.88097581    -0.81440
O777        O  0.08667657  0.76557019  0.83398991    -0.84180
C778        C  0.20675900  0.76093129  0.77442058     0.96580
C779        C  0.20246265  0.67368587  0.82544539     1.04020
O780        O  0.16936881  0.75270672  0.83843657    -1.13160
O781        O  0.10648859  0.72169311  0.88520738    -0.75600
O782        O  0.07979260  0.66351818  0.85214968    -0.79080
O783        O  0.23349573  0.79234116  0.79317480    -0.79770
C784        C  0.07867375  0.67940328  0.87727845     0.95490
O785        O  0.08912896  0.71948175  0.79914981    -0.77730
O786        O  0.19691591  0.79896154  0.89462859    -0.82920
C787        C  0.22838454  0.87050907  0.84548644     0.98110
C788        C  0.22208954  0.78016715  0.90066415     1.04030
O789        O  0.25171380  0.84883539  0.84697486    -0.78570
C790        C  0.07073623  0.74165582  0.81022242     1.02330
Fe791      Fe  0.70533446  0.57900398  0.73491970     1.65780
Fe792      Fe  0.79850919  0.66056152  0.77405733     1.73250
Fe793      Fe  0.79534996  0.56130179  0.75352059     1.54420
O794        O  0.73506930  0.49699100  0.74037477    -0.82300
O795        O  0.86157260  0.68250686  0.75430373    -0.80610
O796        O  0.68143955  0.51347448  0.75262574    -0.84810
O797        O  0.73408122  0.56579548  0.69775494    -0.79660
O798        O  0.78146515  0.54953002  0.79792858    -0.81440
O799        O  0.78252409  0.69875174  0.74324048    -0.84180
C800        C  0.77401546  0.57010441  0.69096931     0.96580
C801        C  0.69220280  0.48568229  0.74100604     1.04020
O802        O  0.76656831  0.60140972  0.75325604    -1.13160
O803        O  0.73963265  0.64346849  0.79520783    -0.75600
O804        O  0.67471977  0.59173792  0.77096305    -0.79080
O805        O  0.80559431  0.57508027  0.70978735    -0.79770
C806        C  0.69533602  0.61885989  0.79275520     0.95490
O807        O  0.72139160  0.64368182  0.71697787    -0.77730
O808        O  0.81367096  0.62705459  0.80864777    -0.82920
C809        C  0.88439766  0.66223819  0.76127518     0.98110
C810        C  0.79459967  0.58334095  0.81648650     1.04030
O811        O  0.86361783  0.61730460  0.76433616    -0.78570
C812        C  0.74949393  0.68662335  0.72415933     1.02330
Fe813      Fe  0.58880065  0.89081225  0.64548003     1.65780
Fe814      Fe  0.66368035  0.88008047  0.69251522     1.73250
Fe815      Fe  0.56843911  0.78251985  0.66566065     1.54410
O816        O  0.50598911  0.78029134  0.65246307    -0.82300
O817        O  0.68955587  0.83988622  0.67444329    -0.80610
O818        O  0.52085717  0.85322185  0.66005511    -0.84810
O819        O  0.57360868  0.84697091  0.60933538    -0.79660
O820        O  0.55354526  0.78119339  0.70974320    -0.81440
O821        O  0.70445875  0.93580082  0.66351802    -0.84180
C822        C  0.57789871  0.81133576  0.60278592     0.96580
C823        C  0.49289725  0.81077231  0.65261484     1.04020
O824        O  0.60763355  0.85177995  0.66755034    -1.13160
O825        O  0.64271393  0.92147702  0.71312120    -0.75600
O826        O  0.60283174  0.93795468  0.67937222    -0.79080
O827        O  0.58338879  0.78553422  0.62191013    -0.79770
C828        C  0.62223494  0.94357163  0.70444105     0.95490
O829        O  0.65492550  0.93406514  0.62893513    -0.77730
O830        O  0.62821263  0.82964250  0.72517984    -0.82920
C831        C  0.66820921  0.79524071  0.67796234     0.98110
C832        C  0.58469772  0.80026021  0.73015213     1.04030
O833        O  0.62338775  0.77056623  0.67743722    -0.78570
C834        C  0.69607095  0.95214625  0.64009398     1.02330
Fe835      Fe  0.58089611  0.69227540  0.93999578     1.65780
Fe836      Fe  0.65264626  0.77479175  0.89320855     1.73250
Fe837      Fe  0.56069561  0.77917911  0.91811627     1.54420
O838        O  0.49762767  0.71643750  0.92946967    -0.82300
O839        O  0.68401840  0.84114801  0.91152915    -0.80610
O840        O  0.51677265  0.66277896  0.91939508    -0.84810
O841        O  0.55996312  0.71866022  0.97451500    -0.79660
O842        O  0.54642638  0.76563071  0.87354677    -0.81440
O843        O  0.69101445  0.75493200  0.92273159    -0.84180
C844        C  0.56709917  0.75976122  0.98119917     0.96580
C845        C  0.48773716  0.67331539  0.92935745     1.04020
O846        O  0.59974531  0.75035957  0.91843330    -1.13160
O847        O  0.61907194  0.71128834  0.87247743    -0.75600
O848        O  0.60289691  0.66071519  0.90888910    -0.79080
O849        O  0.57471612  0.79142760  0.96197940    -0.79770
C850        C  0.61492273  0.67347363  0.88262933     0.95490
O851        O  0.64478910  0.71986434  0.96073499    -0.77730
O852        O  0.62153262  0.79585037  0.86079936    -0.82920
C853        C  0.66411099  0.86590236  0.90958328     0.98110
C854        C  0.57840099  0.78080220  0.85424485     1.04030
O855        O  0.61910059  0.84691003  0.90909235    -0.78570
C856        C  0.68424787  0.73642533  0.94841371     1.02330
Fe857      Fe  0.31784096  0.42890085  0.98282862     1.65780
Fe858      Fe  0.23192248  0.34917786  0.52573457     1.73250
Fe859      Fe  0.22950941  0.44540450  0.00108102     1.54420
O860        O  0.29083578  0.51026467  0.99053407    -0.82300
O861        O  0.16633472  0.32144575  0.50575009    -0.80610
O862        O  0.34463041  0.49284496  0.00302729    -0.84810
O863        O  0.29204181  0.44874979  0.94671805    -0.79660
O864        O  0.24089472  0.45753062  0.54593248    -0.81440
O865        O  0.25236253  0.31249978  0.49690026    -0.84180
C866        C  0.25116446  0.44057056  0.93868562     0.96580
C867        C  0.33401821  0.52242752  0.99322925     1.04020
O868        O  0.25904616  0.40653582  0.50252292    -1.13160
O869        O  0.29317608  0.37400137  0.54907986    -0.75600
O870        O  0.34996779  0.41185079  0.51651974    -0.79080
O871        O  0.21894433  0.43219284  0.95700607    -0.79770
C872        C  0.33616663  0.39600001  0.54211602     0.95490
O873        O  0.29451571  0.36537218  0.96237061    -0.77730
O874        O  0.21246013  0.38087251  0.55750526    -0.82920
C875        C  0.14255612  0.34210679  0.50870030     0.98110
C876        C  0.22479515  0.42356265  0.56452102     1.04030
O877        O  0.16242685  0.38734409  0.50938943    -0.78570
C878        C  0.27687841  0.32435755  0.97361934     1.02330
Fe879      Fe  0.89459748  0.31827865  0.56496619     1.65780
Fe880      Fe  0.89753761  0.23901553  0.61157056     1.73250
Fe881      Fe  0.79299184  0.22796320  0.59026039     1.54420
O882        O  0.78511265  0.28609066  0.57669218    -0.82300
O883        O  0.85650346  0.16961086  0.59775565    -0.80610
O884        O  0.85699474  0.34442329  0.58400244    -0.84810
O885        O  0.84559809  0.28366078  0.53103669    -0.79660
O886        O  0.79764577  0.24439617  0.63462151    -0.81440
O887        O  0.94632527  0.25167331  0.57815892    -0.84180
C888        C  0.81082825  0.24186389  0.52598932     0.96580
C889        C  0.81547598  0.33010975  0.57555266     1.04020
O890        O  0.86227235  0.26114022  0.58844651    -1.13160
O891        O  0.94078423  0.30459809  0.62856910    -0.75600
O892        O  0.94610574  0.35807017  0.59578119    -0.79080
O893        O  0.78947104  0.21165269  0.54634891    -0.79770
C894        C  0.95737472  0.34695463  0.61994619     0.95490
O895        O  0.93738519  0.29805085  0.54569690    -0.77730
O896        O  0.85430969  0.22777285  0.64763399    -0.82920
C897        C  0.81261201  0.14464147  0.60219435     0.98110
C898        C  0.82180364  0.23682896  0.65403342     1.04030
O899        O  0.78615082  0.16267867  0.60221198    -0.78570
C900        C  0.95785369  0.27588672  0.55437741     1.02330
Fe901      Fe  0.44815788  0.12655695  0.90047425     1.65780
Fe902      Fe  0.36335713  0.13537595  0.93625044     1.73250
Fe903      Fe  0.46414829  0.23308436  0.91841838     1.54420
O904        O  0.52762691  0.23807416  0.90702971    -0.82300
O905        O  0.34271707  0.18090890  0.91867254    -0.80610
O906        O  0.51498453  0.16727500  0.91755739    -0.84810
O907        O  0.46131862  0.16906496  0.86284538    -0.79660
O908        O  0.47334878  0.22865277  0.96340279    -0.81440
O909        O  0.32683608  0.08499790  0.90271332    -0.84180
C910        C  0.45667724  0.20486488  0.85566752     0.96580
C911        C  0.54181712  0.20871515  0.90850149     1.04020
O912        O  0.42431288  0.16422365  0.91772746    -1.13160
O913        O  0.37706971  0.08912911  0.95702092    -0.75600
O914        O  0.43471520  0.08252993  0.93690338    -0.79080
O915        O  0.45194923  0.23142804  0.87422328    -0.79770
C916        C  0.40393935  0.07191079  0.95651485     0.95490
O917        O  0.38442756  0.07869107  0.88230677    -0.77730
O918        O  0.39590994  0.18028015  0.97221617    -0.82920
C919        C  0.36555071  0.22405051  0.92651165     0.98110
C920        C  0.43883392  0.20649972  0.98108195     1.04030
O921        O  0.41012623  0.24554600  0.92793849    -0.78570
C922        C  0.34100055  0.06454954  0.88516805     1.02330
Fe923      Fe  0.70019461  0.12110214  0.85537191     1.65780
Fe924      Fe  0.79202539  0.13071810  0.81719648     1.73250
Fe925      Fe  0.79580921  0.22859789  0.84290148     1.54410
O926        O  0.73755937  0.23445978  0.85387907    -0.82300
O927        O  0.85567876  0.16879000  0.83878583    -0.80610
O928        O  0.67722429  0.16576065  0.84076543    -0.84810
O929        O  0.72761199  0.15820696  0.89492671    -0.79660
O930        O  0.78731099  0.23405646  0.79802591    -0.81440
O931        O  0.77419010  0.07528534  0.84709250    -0.84180
C932        C  0.76791064  0.19205126  0.90396973     0.96580
C933        C  0.69356428  0.20682139  0.85113792     1.04020
O934        O  0.76244534  0.15938723  0.83876051    -1.13160
O935        O  0.73255400  0.09045027  0.79339514    -0.75600
O936        O  0.67006028  0.08215214  0.81705620    -0.79080
O937        O  0.80168040  0.21934955  0.88698657    -0.79770
C938        C  0.68877244  0.07509918  0.79493520     0.95490
O939        O  0.71396516  0.07050503  0.87146001    -0.77730
O940        O  0.81004303  0.18238893  0.78427458    -0.82920
C941        C  0.88084837  0.21299359  0.83495051     0.98110
C942        C  0.79940162  0.21447249  0.77842833     1.04030
O943        O  0.86278083  0.23935327  0.83436805    -0.78570
C944        C  0.74200182  0.05560308  0.86616166     1.02330
Fe945      Fe  0.31840758  0.88898754  0.60989300     1.65780
Fe946      Fe  0.24003832  0.87924057  0.55929293     1.73250
Fe947      Fe  0.22888822  0.78157715  0.58917304     1.54410
O948        O  0.28982120  0.77970927  0.60206358    -0.82300
O949        O  0.17216866  0.84757915  0.57427761    -0.80610
O950        O  0.34872729  0.85272290  0.59321307    -0.84810
O951        O  0.29064832  0.84181933  0.64488361    -0.79660
O952        O  0.24348526  0.77780441  0.54526982    -0.81440
O953        O  0.26139120  0.93982055  0.58670117    -0.84180
C954        C  0.24921091  0.80924061  0.65192157     0.96580
C955        C  0.33379546  0.80993896  0.60056238     1.04020
O956        O  0.26044271  0.84983604  0.58755442    -1.13160
O957        O  0.30417239  0.90308727  0.54256522    -0.75600
O958        O  0.35259397  0.94354193  0.57811637    -0.79080
O959        O  0.21677786  0.78608915  0.63276938    -0.79770
C960        C  0.34000325  0.93986013  0.55140368     0.95490
O961        O  0.29040636  0.92616141  0.62754592    -0.77730
O962        O  0.21892666  0.82588904  0.52828325    -0.82920
C963        C  0.14599781  0.80245606  0.57419973     0.98110
C964        C  0.23394688  0.79735993  0.52404541     1.04030
O965        O  0.16301448  0.77482352  0.57744888    -0.78570
C966        C  0.27765711  0.95115085  0.61300580     1.02330
Fe967      Fe  0.12590487  0.42728563  0.77150766     1.65780
Fe968      Fe  0.13295087  0.34531103  0.73147891     1.73250
Fe969      Fe  0.23138820  0.44450873  0.75246210     1.54410
O970        O  0.23608417  0.50927158  0.76450939    -0.82300
O971        O  0.17450144  0.32203221  0.75159649    -0.80610
O972        O  0.16545795  0.49079766  0.75141661    -0.84810
O973        O  0.17081034  0.44377366  0.80780590    -0.79660
O974        O  0.22641798  0.45467383  0.70741685    -0.81440
O975        O  0.07997531  0.30888725  0.76218406    -0.84180
C976        C  0.20578665  0.43870515  0.81533773     0.96580
C977        C  0.20435537  0.52027613  0.76263735     1.04020
O978        O  0.16257015  0.40410024  0.75296848    -1.13160
O979        O  0.09214146  0.36566425  0.70821632    -0.75600
O980        O  0.07988797  0.41321040  0.73697661    -0.79080
O981        O  0.23112557  0.43250805  0.79680183    -0.79770
C982        C  0.07485257  0.39204333  0.71294527     0.95490
O983        O  0.08006560  0.36382779  0.79102391    -0.77730
O984        O  0.18176140  0.37681372  0.69849849    -0.82920
C985        C  0.21763393  0.34273769  0.74463660     0.98110
C986        C  0.20526257  0.41965558  0.68950524     1.04030
O987        O  0.24189699  0.38783836  0.74242517    -0.78570
C988        C  0.06257593  0.32096810  0.78287109     1.02330
Fe989      Fe  0.89366790  0.58507125  0.52650235     1.65780
Fe990      Fe  0.88061071  0.65297255  0.97710599     1.73250
Fe991      Fe  0.78556237  0.56175814  0.50519315     1.54420
O992        O  0.78544238  0.49919213  0.51790243    -0.82300
O993        O  0.84733592  0.68603963  0.99433806    -0.80610
O994        O  0.85888290  0.51763842  0.50994111    -0.84810
O995        O  0.84780729  0.56598747  0.56184985    -0.79660
O996        O  0.78324174  0.54425366  0.96124969    -0.81440
O997        O  0.94223062  0.69388556  0.50385136    -0.84180
C998        C  0.81311954  0.57181342  0.56804729     0.96580
C999        C  0.81702188  0.48750768  0.51685973     1.04020
O1000       O  0.85329426  0.60149505  0.50429787    -1.13160
O1001       O  0.90694999  0.61666338  0.95752868    -0.75600
O1002       O  0.94539611  0.60518129  0.99357488    -0.79080
O1003       O  0.78863560  0.57800125  0.54848579    -0.79770
C1004       C  0.94191737  0.61455508  0.96680832     0.95490
O1005       O  0.93056172  0.65141896  0.54427586    -0.77730
O1006       O  0.82620091  0.61938701  0.94677976    -0.82920
C1007       C  0.80249107  0.66536951  0.99244923     0.98110
C1008       C  0.79945653  0.57547897  0.94111133     1.04030
O1009       O  0.77629900  0.61995385  0.99409116    -0.78570
C1010       C  0.95491613  0.68923981  0.52984240     1.02330
Fe1011     Fe  0.43063856  0.31303547  0.69208412     1.65780
Fe1012     Fe  0.36108233  0.23251241  0.64156038     1.73250
Fe1013     Fe  0.45472317  0.22949003  0.66955405     1.54420
O1014       O  0.51759165  0.29220528  0.68160047    -0.82300
O1015       O  0.33194522  0.16527874  0.65894273    -0.80610
O1016       O  0.49839863  0.34787701  0.67792320    -0.84810
O1017       O  0.44737351  0.28370914  0.72760631    -0.79660
O1018       O  0.46968917  0.24387076  0.62526767    -0.81440
O1019       O  0.32022650  0.24917868  0.66869085    -0.84180
C1020       C  0.44511371  0.24414274  0.73324048     0.96580
C1021       C  0.52888827  0.33575283  0.68238953     1.04020
O1022       O  0.41487447  0.25791562  0.66825825    -1.13160
O1023       O  0.38851763  0.29661624  0.62156441    -0.75600
O1024       O  0.41610924  0.34821447  0.65869074    -0.79080
O1025       O  0.44089784  0.21502778  0.71333619    -0.79770
C1026       C  0.40558619  0.33818328  0.63172017     0.95490
O1027       O  0.36387598  0.28376015  0.70846708    -0.77730
O1028       O  0.39500459  0.21499173  0.61031215    -0.82920
C1029       C  0.35291889  0.14160836  0.65735128     0.98110
C1030       C  0.43789897  0.22802152  0.60520962     1.04030
O1031       O  0.39787684  0.16160716  0.65883869    -0.78570
C1032       C  0.32560326  0.26763816  0.69402946     1.02330
C1033       C  0.24482785  0.31779433  0.70224871    -0.26950
C1034       C  0.23796202  0.31492198  0.73263963    -0.15020
C1035       C  0.25466592  0.29011143  0.74996845     0.35610
C1036       C  0.28014034  0.27133216  0.73654379    -0.26390
C1037       C  0.28868079  0.27604930  0.70619003    -0.15630
C1038       C  0.26962926  0.29855965  0.68881301     0.36700
N1039       N  0.27894505  0.30549699  0.65795345    -0.89880
H1040       H  0.23220239  0.33686614  0.68890773     0.17810
H1041       H  0.29508543  0.25462125  0.75013241     0.17800
N1042       N  0.24799529  0.28470003  0.78108896    -0.88910
H1043       H  0.26549906  0.32584521  0.64876838     0.35180
H1044       H  0.26045376  0.27212563  0.64791806     0.40280
H1045       H  0.22855483  0.29980761  0.78841321     0.39900
H1046       H  0.28128532  0.30338469  0.79121645     0.34790
C1047       C  0.01330384  0.71711728  0.57174003    -0.26950
C1048       C  0.00121059  0.72590621  0.54342696    -0.15020
C1049       C  0.03609402  0.76528068  0.52777109     0.35610
C1050       C  0.08219286  0.79247270  0.53966550    -0.26390
C1051       C  0.09489585  0.78078712  0.56676814    -0.15630
C1052       C  0.05934043  0.74360648  0.58346643     0.36700
N1053       N  0.06869502  0.73088988  0.61203423    -0.89880
H1054       H  0.98726685  0.68775178  0.58463070     0.17810
H1055       H  0.10910189  0.82089764  0.52661389     0.17800
N1056       N  0.02581839  0.77651981  0.99919829    -0.88910
H1057       H  0.04713413  0.73505129  0.62685249     0.35180
H1058       H  0.10329949  0.75415716  0.61906525     0.40280
H1059       H  0.03282314  0.81159060  0.99953597     0.39900
H1060       H  0.04880264  0.77469116  0.98441184     0.34790
C1061       C  0.29764664  0.07661525  0.62393359    -0.26950
C1062       C  0.32528004  0.09033438  0.64980625    -0.15020
C1063       C  0.33106888  0.05622208  0.66547657     0.35610
C1064       C  0.31119612  0.00984723  0.65419157    -0.26390
C1065       C  0.28707440  0.99687458  0.62683174    -0.15630
C1066       C  0.27870179  0.03043211  0.61215220     0.36700
N1067       N  0.25284189  0.01843249  0.58482691    -0.89880
H1068       H  0.29323664  0.10298502  0.61190061     0.17810
H1069       H  0.31721657  0.98454355  0.66622472     0.17800
N1070       N  0.35728744  0.06875687  0.69272107    -0.88910
H1071       H  0.25107555  0.04752088  0.57651816     0.35180
H1072       H  0.21814759  0.99188629  0.58913054     0.40280
H1073       H  0.39274035  0.09234698  0.68810371     0.39900
H1074       H  0.35607319  0.03889465  0.70230893     0.34790
C1075       C  0.01338005  0.29078165  0.82736740    -0.26950
C1076       C  0.01827764  0.28503342  0.79724405    -0.15020
C1077       C  0.97774451  0.25103424  0.78103268     0.35610
C1078       C  0.93482737  0.22424341  0.79545328    -0.26390
C1079       C  0.92955506  0.23282559  0.82470222    -0.15630
C1080       C  0.96920032  0.26567787  0.84108921     0.36700
N1081       N  0.96408893  0.27456764  0.87117274    -0.89880
H1082       H  0.04370972  0.31700851  0.83986042     0.17810
H1083       H  0.90391072  0.19951251  0.78273813     0.17800
N1084       N  0.97671411  0.24492072  0.74974307    -0.88910
H1085       H  0.99663883  0.30011537  0.88013551     0.35180
H1086       H  0.95359857  0.24306614  0.88280826     0.40280
H1087       H  0.00807501  0.26885283  0.73974776     0.39900
H1088       H  0.95160018  0.25244348  0.74084552     0.34790
C1089       C  0.58741560  0.22062114  0.86400655    -0.26950
C1090       C  0.58658311  0.21981058  0.89479469    -0.15020
C1091       C  0.62475641  0.22163200  0.91070215     0.35610
C1092       C  0.66169846  0.22218498  0.89535046    -0.26390
C1093       C  0.66067153  0.21924919  0.86459169    -0.15630
C1094       C  0.62339385  0.21930955  0.84869568     0.36700
N1095       N  0.62044831  0.21732024  0.81723622    -0.89880
H1096       H  0.55817626  0.21914633  0.85166459     0.17810
H1097       H  0.68988487  0.22153056  0.90771203     0.17800
N1098       N  0.62642113  0.22114982  0.94219372    -0.88910
H1099       H  0.59100466  0.18473453  0.81129160     0.35180
H1100       H  0.64994146  0.21837714  0.80820039     0.40280
H1101       H  0.59754107  0.22150724  0.95109919     0.39900
H1102       H  0.65636408  0.25270019  0.94901696     0.34790
C1103       C  0.34529740  0.00739118  0.98470087    -0.26950
C1104       C  0.39355791  0.03572974  0.97924624    -0.15020
C1105       C  0.42669987  0.03453800  0.49924291     0.35610
C1106       C  0.40977529  0.00427625  0.52397779    -0.26390
C1107       C  0.36115127  0.97804737  0.52955206    -0.15630
C1108       C  0.32927983  0.98187858  0.51024347     0.36700
N1109       N  0.27988588  0.95959469  0.51660888    -0.89880
H1110       H  0.31926433  0.00783007  0.96988226     0.17810
H1111       H  0.43439303  0.00120054  0.53866002     0.17800
N1112       N  0.47684025  0.06399192  0.49592222    -0.88910
H1113       H  0.27068539  0.98597428  0.01728176     0.35180
H1114       H  0.26070264  0.93621199  0.49951549     0.40280
H1115       H  0.48518823  0.08568510  0.97747865     0.39900
H1116       H  0.49042814  0.04150478  0.49264009     0.34790
C1117       C  0.48032139  0.25361437  0.52665197    -0.26950
C1118       C  0.44672825  0.21052860  0.51336945    -0.15020
C1119       C  0.41718281  0.17155073  0.53145143     0.35610
C1120       C  0.41807884  0.17754226  0.56172149    -0.26390
C1121       C  0.44847250  0.22150810  0.57484409    -0.15630
C1122       C  0.48163635  0.25939464  0.55743793     0.36700
N1123       N  0.51422528  0.30423342  0.57077003    -0.89880
H1124       H  0.50366313  0.28342195  0.51299146     0.17810
H1125       H  0.39313619  0.14796295  0.57501451     0.17800
N1126       N  0.38526811  0.12575397  0.51911291    -0.88910
H1127       H  0.53523959  0.32877449  0.55485618     0.35180
H1128       H  0.53697655  0.29880219  0.58443030     0.40280
H1129       H  0.35094918  0.11611155  0.02506198     0.39900
H1130       H  0.39317420  0.10108046  0.52838918     0.34790
C1131       C  0.47070333  0.27068579  0.78439669    -0.26950
C1132       C  0.44867546  0.23287229  0.76432099    -0.15020
C1133       C  0.43065154  0.18571583  0.77436917     0.35610
C1134       C  0.43509278  0.17765198  0.80421193    -0.26390
C1135       C  0.45617110  0.21547968  0.82425528    -0.15630
C1136       C  0.47481575  0.26256712  0.81418111     0.36700
N1137       N  0.49836812  0.30200238  0.83412700    -0.89880
H1138       H  0.48530285  0.30698628  0.77679685     0.17810
H1139       H  0.42054107  0.14146802  0.81204283     0.17800
N1140       N  0.40691900  0.14615692  0.75453697    -0.88910
H1141       H  0.50970509  0.33425574  0.82319385     0.35180
H1142       H  0.52875369  0.30260125  0.84205028     0.40280
H1143       H  0.37593946  0.14487497  0.74718339     0.39900
H1144       H  0.39649587  0.11405192  0.76543487     0.34790
C1145       C  0.83800996  0.38674262  0.53522305    -0.26950
C1146       C  0.80712449  0.36416517  0.55847634    -0.15020
C1147       C  0.77364957  0.37778635  0.56514088     0.35610
C1148       C  0.77435971  0.41575857  0.54942637    -0.26390
C1149       C  0.80739129  0.43993794  0.52713158    -0.15630
C1150       C  0.83772856  0.42325603  0.51918366     0.36700
N1151       N  0.86961344  0.44438445  0.99533078    -0.89880
H1152       H  0.86381943  0.37671277  0.52984026     0.17810
H1153       H  0.75107019  0.42839150  0.55604734     0.17800
N1154       N  0.74111981  0.35670365  0.58877821    -0.88910
H1155       H  0.86246146  0.41769620  0.98010673     0.35180
H1156       H  0.90403147  0.45761459  0.00340280     0.40280
H1157       H  0.74486575  0.33013125  0.59920368     0.39900
H1158       H  0.70700626  0.34016824  0.57971971     0.34790
C1159       C  0.06815576  0.40646552  0.66081230    -0.26950
C1160       C  0.04883257  0.39859893  0.68881386    -0.15020
C1161       C  0.00342516  0.39181585  0.69239988     0.35610
C1162       C  0.97537500  0.38508578  0.66736963    -0.26390
C1163       C  0.99187751  0.38332125  0.63952401    -0.15630
C1164       C  0.03997483  0.39839813  0.63590100     0.36700
N1165       N  0.05963419  0.39997056  0.60773458    -0.89880
H1166       H  0.10442407  0.41529885  0.65830881     0.17810
H1167       H  0.93847006  0.37412121  0.66986922     0.17800
N1168       N  0.98461370  0.38756092  0.72114836    -0.88910
H1169       H  0.08765853  0.43462973  0.60463459     0.35180
H1170       H  0.03526624  0.39387559  0.59090740     0.40280
H1171       H  0.98029561  0.35622051  0.73052999     0.39900
H1172       H  0.95112845  0.38388636  0.71969108     0.34790
C1173       C  0.76451773  0.19753520  0.72839475    -0.26950
C1174       C  0.80158326  0.22839385  0.74725234    -0.15020
C1175       C  0.84308008  0.26619102  0.73505705     0.35610
C1176       C  0.84780877  0.26977872  0.70441966    -0.26390
C1177       C  0.81183080  0.23706948  0.68559765    -0.15630
C1178       C  0.76931738  0.20123081  0.69769467     0.36700
N1179       N  0.73219931  0.16731670  0.67883691    -0.89880
H1180       H  0.73251923  0.16904646  0.73775541     0.17810
H1181       H  0.88062580  0.29734166  0.69525502     0.17800
N1182       N  0.88175599  0.30028091  0.75295642    -0.88910
H1183       H  0.70336962  0.14302601  0.69116669     0.35180
H1184       H  0.74497014  0.14787434  0.66821699     0.40280
H1185       H  0.87487031  0.29351706  0.77523426     0.39900
H1186       H  0.88490155  0.33341917  0.74904411     0.34790
C1187       C  0.79028890  0.24886295  0.94435723    -0.26950
C1188       C  0.77502608  0.20232614  0.93550550    -0.15020
C1189       C  0.76772152  0.16747181  0.95661678     0.35610
C1190       C  0.77838538  0.18088637  0.98627145    -0.26390
C1191       C  0.79578213  0.22825512  0.99505130    -0.15630
C1192       C  0.80040592  0.26216005  0.97364481     0.36700
N1193       N  0.81426632  0.31018182  0.98081670    -0.89880
H1194       H  0.79458510  0.27536539  0.92822712     0.17810
H1195       H  0.77444647  0.15459624  0.00242622     0.17800
N1196       N  0.75180631  0.11938816  0.94776037    -0.88910
H1197       H  0.84940742  0.32793772  0.98801582     0.35180
H1198       H  0.79230730  0.30970375  0.99726551     0.40280
H1199       H  0.71706879  0.10470059  0.93998931     0.39900
H1200       H  0.75054345  0.09881860  0.96581591     0.34790
C1201       C  0.40296887  0.38686112  0.55891272    -0.26950
C1202       C  0.37019876  0.40086971  0.56497222    -0.15020
C1203       C  0.36345918  0.40986205  0.59416445     0.35610
C1204       C  0.38338116  0.39660953  0.61708037    -0.26390
C1205       C  0.40898069  0.37417219  0.61089666    -0.15630
C1206       C  0.42272788  0.37348452  0.58174002     0.36700
N1207       N  0.45348041  0.35575505  0.57455981    -0.89880
H1208       H  0.40939922  0.38146137  0.53645607     0.17810
H1209       H  0.37363954  0.39794432  0.63946010     0.17800
N1210       N  0.33305647  0.42848278  0.60029461    -0.88910
H1211       H  0.43327958  0.32327281  0.56369702     0.35180
H1212       H  0.46788334  0.34942181  0.59346320     0.40280
H1213       H  0.34866300  0.46275421  0.59145448     0.39900
H1214       H  0.33096691  0.43201843  0.62287097     0.34790
C1215       C  0.24579890  0.46618415  0.64388295    -0.26950
C1216       C  0.20780865  0.42628146  0.65711639    -0.15020
C1217       C  0.17289292  0.39017614  0.63884114     0.35610
C1218       C  0.17770761  0.39342390  0.60861260    -0.26390
C1219       C  0.21731174  0.43085762  0.59545158    -0.15630
C1220       C  0.25110772  0.46866686  0.61305168     0.36700
N1221       N  0.29190259  0.50762407  0.59989731    -0.89880
H1222       H  0.27253969  0.49410698  0.65759183     0.17810
H1223       H  0.15107906  0.36457735  0.59529757     0.17800
N1224       N  0.13294470  0.34874564  0.65073596    -0.89470
H1225       H  0.31418130  0.53143454  0.61597903     0.35180
H1226       H  0.28022049  0.52623941  0.58679592     0.40280
H1227       H  0.13468281  0.31889938  0.64441002     0.39900
H1228       H  0.10217260  0.34556312  0.64139976     0.34790
C1229       C  0.26157523  0.44741311  0.85550284    -0.26950
C1230       C  0.21732235  0.44059510  0.84699422    -0.15020
C1231       C  0.18456785  0.43449042  0.86885857     0.35610
C1232       C  0.19684117  0.43481916  0.89839513    -0.26390
C1233       C  0.24095025  0.44125196  0.90695746    -0.15630
C1234       C  0.27375539  0.44746369  0.88508855     0.36700
N1235       N  0.31909720  0.45326250  0.89269255    -0.89880
H1236       H  0.28683751  0.45223161  0.83893815     0.17810
H1237       H  0.17145107  0.43003589  0.91485422     0.17800
N1238       N  0.13853367  0.42695254  0.86126909    -0.88910
H1239       H  0.33973041  0.46026587  0.87409208     0.35180
H1240       H  0.31325327  0.42067285  0.90089317     0.40280
H1241       H  0.14303507  0.45956892  0.85414695     0.39900
H1242       H  0.11725271  0.41767563  0.87973227     0.34790
C1243       C  0.02674497  0.26309828  0.54731836    -0.26950
C1244       C  0.99952124  0.28278641  0.53714273    -0.15020
C1245       C  0.01686304  0.31511748  0.51313049     0.35610
C1246       C  0.06240977  0.33081768  0.50263626    -0.26390
C1247       C  0.09107970  0.31438395  0.51461197    -0.15630
C1248       C  0.07227527  0.27851931  0.53633500     0.36700
N1249       N  0.10052214  0.26016330  0.54861176    -0.89880
H1250       H  0.01389390  0.23788992  0.56525301     0.17810
H1251       H  0.07662746  0.35795059  0.48577709     0.17800
N1252       N  0.98944285  0.33407001  0.50029878    -0.88910
H1253       H  0.08127907  0.23351356  0.56394293     0.35180
H1254       H  0.12874185  0.28778199  0.56012937     0.40280
H1255       H  0.95989985  0.30589269  0.49006565     0.39900
H1256       H  0.00815736  0.35873925  0.48385293     0.34790
C1257       C  0.29173378  0.22885757  0.93487884    -0.26950
C1258       C  0.34124410  0.24920749  0.93765307    -0.15020
C1259       C  0.36725797  0.29242579  0.95364258     0.35610
C1260       C  0.34398722  0.31445464  0.96505625    -0.26390
C1261       C  0.29521048  0.29468251  0.96209894    -0.15630
C1262       C  0.26842238  0.25136028  0.94698310     0.36700
N1263       N  0.21823538  0.23075892  0.94379557    -0.89880
H1264       H  0.27124230  0.19545651  0.92331514     0.17810
H1265       H  0.36435466  0.34766788  0.97692339     0.17800
N1266       N  0.41722230  0.31364596  0.95917724    -0.88910
H1267       H  0.20372930  0.19883554  0.93211247     0.35180
H1268       H  0.21210921  0.25406824  0.93113415     0.40280
H1269       H  0.42182627  0.29190956  0.97426244     0.39900
H1270       H  0.43113044  0.34682968  0.96930949     0.34790
C1271       C  0.40283913  0.63221035  0.94484795    -0.26950
C1272       C  0.44776825  0.63692886  0.94664546    -0.15020
C1273       C  0.45589130  0.60887782  0.96712195     0.35610
C1274       C  0.41896332  0.57610434  0.98448784    -0.26390
C1275       C  0.37279640  0.56772326  0.98089205    -0.15630
C1276       C  0.36489515  0.59720596  0.96138806     0.36700
N1277       N  0.31839791  0.59054788  0.95760890    -0.89880
H1278       H  0.39700123  0.65472235  0.92981439     0.17810
H1279       H  0.42600240  0.55464765  0.99971768     0.17800
N1280       N  0.50188156  0.61388749  0.97055892    -0.88910
H1281       H  0.31846643  0.61418968  0.94193725     0.35180
H1282       H  0.30926727  0.59933602  0.97743771     0.40280
H1283       H  0.50722752  0.59793450  0.95242151     0.39900
H1284       H  0.50315794  0.59492039  0.98881150     0.34790
C1285       C  0.72767270  0.93389910  0.88224267    -0.26950
C1286       C  0.69333986  0.91765308  0.90412500    -0.15020
C1287       C  0.68233918  0.94981431  0.91685587     0.35610
C1288       C  0.70276686  0.99638762  0.90607072    -0.26390
C1289       C  0.73327616  0.01153371  0.88193741    -0.15630
C1290       C  0.74769207  0.98047087  0.87087193     0.36700
N1291       N  0.77989330  0.99487478  0.84691685    -0.89880
H1292       H  0.73629617  0.90910271  0.87246128     0.17810
H1293       H  0.69214827  0.01984825  0.91555412     0.17800
N1294       N  0.64919983  0.93479190  0.94017941    -0.88910
H1295       H  0.78492368  0.96702693  0.84052890     0.35180
H1296       H  0.81267528  0.02200848  0.85460367     0.40280
H1297       H  0.62139116  0.93981748  0.93349479     0.39900
H1298       H  0.66605886  0.95682418  0.95822768     0.34790
C1299       C  0.76171097  0.73794896  0.94823501    -0.26950
C1300       C  0.72122919  0.72911443  0.96350349    -0.15020
C1301       C  0.71313988  0.70642748  0.99134380     0.35610
C1302       C  0.74162581  0.68790631  0.00108510    -0.26390
C1303       C  0.77961650  0.69350221  0.98463801    -0.15630
C1304       C  0.79096724  0.72049507  0.95848768     0.36700
N1305       N  0.83042076  0.72762219  0.94143796    -0.89880
H1306       H  0.76905868  0.75599232  0.92730172     0.17810
H1307       H  0.73340387  0.66784393  0.52133910     0.17800
N1308       N  0.67504806  0.70065422  0.50930254    -0.88910
H1309       H  0.83475632  0.74926967  0.92332847     0.35180
H1310       H  0.82233668  0.69459645  0.93302882     0.40280
H1311       H  0.68256513  0.73462617  0.01552363     0.39900
H1312       H  0.67344879  0.68248943  0.52864342     0.34790
C1313       C  0.36963296  0.79125034  0.64250250    -0.26950
C1314       C  0.36859661  0.79772428  0.61203718    -0.15020
C1315       C  0.40596999  0.80201394  0.59490446     0.35610
C1316       C  0.44442282  0.80210574  0.60886113    -0.26390
C1317       C  0.44702789  0.79923603  0.63948338    -0.15630
C1318       C  0.40908058  0.79305666  0.65650951     0.36700
N1319       N  0.41137338  0.79012417  0.68786947    -0.89880
H1320       H  0.34123912  0.78860195  0.65566226     0.17810
H1321       H  0.47389380  0.80731011  0.59576285     0.17800
N1322       N  0.40696846  0.80810278  0.56363146    -0.88910
H1323       H  0.38032200  0.78523706  0.69712732     0.35180
H1324       H  0.43866068  0.82289671  0.69552196     0.40280
H1325       H  0.37606358  0.80624960  0.55568203     0.39900
H1326       H  0.40789205  0.77942547  0.55425794     0.34790
C1327       C  0.60095103  0.97194566  0.74864304    -0.26950
C1328       C  0.62776827  0.98190697  0.72322307    -0.15020
C1329       C  0.66847119  0.02630677  0.71963147     0.35610
C1330       C  0.68395636  0.05917239  0.74230854    -0.26390
C1331       C  0.66059601  0.04763238  0.76926157    -0.15630
C1332       C  0.61686710  0.00503042  0.77184273     0.36700
N1333       N  0.59123505  0.99372816  0.79868590    -0.89880
H1334       H  0.56984325  0.93714472  0.75126825     0.17810
H1335       H  0.71758172  0.09166317  0.73994351     0.17800
N1336       N  0.69714842  0.03578987  0.69431670    -0.88910
H1337       H  0.56071797  0.96021893  0.79724044     0.35180
H1338       H  0.57993571  0.01828211  0.80117781     0.40280
H1339       H  0.73070117  0.04317204  0.70132781     0.39900
H1340       H  0.70065447  0.06608649  0.68399526     0.34790
C1341       C  0.55589748  0.74263937  0.80551854    -0.26950
C1342       C  0.56693033  0.78232566  0.82301101    -0.15020
C1343       C  0.57762832  0.82569990  0.80935386     0.35610
C1344       C  0.57953657  0.82891181  0.77873695    -0.26390
C1345       C  0.57129988  0.79014046  0.76123655    -0.15630
C1346       C  0.55827982  0.74598595  0.77478073     0.36700
N1347       N  0.55008676  0.70486736  0.75845477    -0.89880
H1348       H  0.54870358  0.70962132  0.81591127     0.17810
H1349       H  0.58994940  0.86294872  0.76852577     0.17800
N1350       N  0.58938607  0.86787138  0.82577672    -0.88910
H1351       H  0.57650206  0.69731973  0.76448391     0.35180
H1352       H  0.55305592  0.71134409  0.73596440     0.40280
H1353       H  0.58619007  0.86126930  0.84827160     0.39900
H1354       H  0.56460404  0.87787043  0.82011747     0.34790
C1355       C  0.55217785  0.75059071  0.56396329    -0.26950
C1356       C  0.57463559  0.79873249  0.57163519    -0.15020
C1357       C  0.59257312  0.83376336  0.54945400     0.35610
C1358       C  0.58937158  0.81974537  0.52023950    -0.26390
C1359       C  0.56746043  0.77153368  0.51244714    -0.15630
C1360       C  0.54787984  0.73652491  0.53479608     0.36700
N1361       N  0.52249512  0.68651495  0.52883139    -0.89880
H1362       H  0.53715142  0.72347509  0.58080034     0.17810
H1363       H  0.60445273  0.84693419  0.50346743     0.17800
N1364       N  0.61513444  0.88347747  0.55654914    -0.88910
H1365       H  0.54551024  0.67667493  0.52011248     0.35180
H1366       H  0.49510450  0.67911795  0.51390390     0.40280
H1367       H  0.58878038  0.89058044  0.56264902     0.39900
H1368       H  0.63049656  0.90432115  0.53797313     0.34790
C1369       C  0.77166932  0.02983840  0.64475832    -0.26950
C1370       C  0.73411736  0.99719708  0.62683325    -0.15020
C1371       C  0.72863474  0.01212581  0.59851036     0.35610
C1372       C  0.75671277  0.06014929  0.59031888    -0.26390
C1373       C  0.79135707  0.09349384  0.60930829    -0.15630
C1374       C  0.80002252  0.07775337  0.63658124     0.36700
N1375       N  0.83509434  0.10950692  0.65736259    -0.89880
H1376       H  0.77686972  0.01912364  0.66638875     0.17810
H1377       H  0.75047056  0.07202082  0.56934024     0.17800
N1378       N  0.69367810  0.97875074  0.57841317    -0.88910
H1379       H  0.81742351  0.11114048  0.67574616     0.35180
H1380       H  0.85468034  0.14406383  0.64933615     0.40280
H1381       H  0.70370478  0.95391438  0.57329926     0.39900
H1382       H  0.69363549  0.99546431  0.55875820     0.34790
C1383       C  0.60565830  0.36256952  0.70968370    -0.26950
C1384       C  0.57723664  0.37375065  0.69161732    -0.15020
C1385       C  0.59137332  0.42220367  0.68722202     0.35610
C1386       C  0.62954460  0.45731814  0.70340840    -0.26390
C1387       C  0.65554315  0.44597618  0.72317480    -0.15630
C1388       C  0.64508596  0.39846611  0.72537626     0.36700
N1389       N  0.67301072  0.38662177  0.74435796    -0.89880
H1390       H  0.59544538  0.32564890  0.71303507     0.17810
H1391       H  0.63874112  0.49413265  0.70087749     0.17800
N1392       N  0.56589592  0.43561491  0.66706118    -0.88910
H1393       H  0.66060925  0.35009889  0.74352486     0.35180
H1394       H  0.66841899  0.39423381  0.76582823     0.40280
H1395       H  0.57002811  0.42584580  0.64606407     0.39900
H1396       H  0.58041376  0.47252565  0.66676833     0.34790
C1397       C  0.76482296  0.58823914  0.63945821    -0.26950
C1398       C  0.78381292  0.56953515  0.65967876    -0.15020
C1399       C  0.81115074  0.55035345  0.64962115     0.35610
C1400       C  0.81903921  0.55071284  0.61956111    -0.26390
C1401       C  0.80096309  0.57040425  0.59925722    -0.15630
C1402       C  0.77313917  0.58916211  0.60956379     0.36700
N1403       N  0.75365833  0.61041840  0.59060977    -0.89880
H1404       H  0.74390837  0.60316975  0.64699895     0.17810
H1405       H  0.83984467  0.53568636  0.61203501     0.17800
N1406       N  0.82980205  0.52943068  0.66970100    -0.88910
H1407       H  0.72959714  0.58472644  0.57600923     0.35180
H1408       H  0.78099125  0.63832546  0.57907262     0.40280
H1409       H  0.85798885  0.55720596  0.68114070     0.39900
H1410       H  0.84429373  0.51223428  0.65833115     0.34790
C1411       C  0.80301794  0.54379297  0.86194933    -0.26950
C1412       C  0.78805395  0.57293138  0.84837742    -0.15020
C1413       C  0.76883730  0.59440138  0.86587499     0.35610
C1414       C  0.76689144  0.58816571  0.89621948    -0.26390
C1415       C  0.78607553  0.56328867  0.91007431    -0.15630
C1416       C  0.80326422  0.53949506  0.89273594     0.36700
N1417       N  0.82422521  0.51382142  0.90542379    -0.89880
H1418       H  0.81763058  0.52698953  0.84876482     0.17810
H1419       H  0.75428930  0.60681296  0.90949884     0.17800
N1420       N  0.75294626  0.62427204  0.85307165    -0.88910
H1421       H  0.80384983  0.47840446  0.89865855     0.35180
H1422       H  0.82300764  0.51346821  0.92823808     0.40280
H1423       H  0.78294337  0.65674482  0.84804914     0.39900
H1424       H  0.73468442  0.63220987  0.86842792     0.34790
C1425       C  0.60684261  0.60723948  0.85054746    -0.26950
C1426       C  0.63453913  0.65172832  0.86419250    -0.15020
C1427       C  0.68033319  0.68293317  0.85446733     0.35610
C1428       C  0.69644876  0.67172960  0.83008737    -0.26390
C1429       C  0.67021770  0.62743754  0.81617265    -0.15630
C1430       C  0.62510005  0.59413223  0.82675692     0.36700
N1431       N  0.59826375  0.54806670  0.81341155    -0.89880
H1432       H  0.57108578  0.58377755  0.85775497     0.17810
H1433       H  0.73101179  0.69842470  0.82246793     0.17800
N1434       N  0.71009826  0.72781803  0.86860044    -0.88910
H1435       H  0.56588066  0.52814869  0.82383363     0.35180
H1436       H  0.61685519  0.53017059  0.81700053     0.40280
H1437       H  0.71849929  0.75494450  0.85330049     0.39900
H1438       H  0.74142181  0.72915727  0.87518763     0.34790
C1439       C  0.68448073  0.75413434  0.71723433    -0.26950
C1440       C  0.69457554  0.77206778  0.68870300    -0.15020
C1441       C  0.72778314  0.76639948  0.67239169     0.35610
C1442       C  0.74793361  0.74059179  0.68480861    -0.26390
C1443       C  0.73703403  0.72212807  0.71343128    -0.15630
C1444       C  0.70583149  0.73052830  0.73003345     0.36700
N1445       N  0.69317661  0.71390153  0.75960150    -0.89880
H1446       H  0.65948844  0.75870270  0.73000573     0.17810
H1447       H  0.77119515  0.73385516  0.67177223     0.17800
N1448       N  0.74073018  0.78481406  0.64320242    -0.88910
H1449       H  0.70162126  0.74340792  0.77269598     0.35180
H1450       H  0.71385813  0.70056519  0.76788150     0.40280
H1451       H  0.72320312  0.80258288  0.63639873     0.39900
H1452       H  0.72958032  0.75584808  0.62909143     0.34790
C1453       C  0.16724870  0.56641165  0.77738348    -0.26950
C1454       C  0.20846841  0.56342094  0.77681952    -0.15020
C1455       C  0.24900800  0.59798999  0.79240365     0.35610
C1456       C  0.24704804  0.63450362  0.80782839    -0.26390
C1457       C  0.20484735  0.63558896  0.80926752    -0.15630
C1458       C  0.16463241  0.60114344  0.79353363     0.36700
N1459       N  0.12095448  0.60151473  0.79368242    -0.89880
H1460       H  0.13578800  0.54052448  0.76564014     0.17810
H1461       H  0.27804395  0.66123764  0.81955751     0.17800
N1462       N  0.29165533  0.59583092  0.79292460    -0.88910
H1463       H  0.09409258  0.57198497  0.78262293     0.35180
H1464       H  0.12607928  0.63125820  0.78183905     0.40280
H1465       H  0.28521932  0.56605800  0.80532954     0.39900
H1466       H  0.31863935  0.62527053  0.80398119     0.34790
C1467       C  0.01437063  0.67644946  0.90198573    -0.26950
C1468       C  0.03935754  0.65309753  0.89709053    -0.15020
C1469       C  0.03404780  0.61635929  0.91634319     0.35610
C1470       C  0.00297562  0.60393568  0.94015364    -0.26390
C1471       C  0.97949474  0.62919798  0.94527616    -0.15630
C1472       C  0.98698020  0.66688479  0.92641920     0.36700
N1473       N  0.96743344  0.69659859  0.93245243    -0.89880
H1474       H  0.01951084  0.70574279  0.88796325     0.17810
H1475       H  0.99713342  0.57478148  0.95444176     0.17800
N1476       N  0.06009370  0.59220253  0.91287077    -0.88910
H1477       H  0.99520533  0.73173433  0.93445793     0.35180
H1478       H  0.94624029  0.69481975  0.91456329     0.40280
H1479       H  0.08141881  0.60464891  0.89444937     0.39900
H1480       H  0.03563603  0.55631609  0.90896417     0.34790
C1481       C  0.23222482  0.94462162  0.86473713    -0.26950
C1482       C  0.25383038  0.92318915  0.84967127    -0.15020
C1483       C  0.30141936  0.95162996  0.84192704     0.35610
C1484       C  0.32723569  0.99919542  0.85101827    -0.26390
C1485       C  0.30747325  0.01957211  0.86896842    -0.15630
C1486       C  0.25853032  0.99241333  0.87458569     0.36700
N1487       N  0.23612603  0.01236210  0.89136588    -0.89880
H1488       H  0.19538989  0.92318821  0.87048657     0.17810
H1489       H  0.36423113  0.01925499  0.84541009     0.17800
N1490       N  0.32431788  0.93198500  0.82549172    -0.88910
H1491       H  0.20036924  0.98741249  0.89409674     0.35180
H1492       H  0.23746750  0.04028476  0.87911367     0.40280
H1493       H  0.35302192  0.93560038  0.83793167     0.39900
H1494       H  0.33737933  0.95206619  0.80638133     0.34790
C1495       C  0.94365720  0.71126359  0.79885720    -0.26950
C1496       C  0.93434468  0.69160178  0.77057753    -0.15020
C1497       C  0.97210919  0.69669609  0.75363760     0.35610
C1498       C  0.01766881  0.71849401  0.76616551    -0.26390
C1499       C  0.02655675  0.73441384  0.79552339    -0.15630
C1500       C  0.98924921  0.73253369  0.81159259     0.36700
N1501       N  0.99674499  0.74881414  0.84141801    -0.89880
H1502       H  0.91455407  0.70760735  0.81170779     0.17810
H1503       H  0.04594342  0.72030312  0.75328292     0.17800
N1504       N  0.96557763  0.67957303  0.72402203    -0.88910
H1505       H  0.96511036  0.74245972  0.85058522     0.35180
H1506       H  0.01906198  0.78572923  0.84110713     0.40280
H1507       H  0.93060115  0.66508806  0.71684299     0.39900
H1508       H  0.97330714  0.65213710  0.72369003     0.34790
C1509       C  0.26722667  0.82198009  0.94473081    -0.26950
C1510       C  0.23414479  0.77903767  0.93173834    -0.15020
C1511       C  0.20659693  0.73893677  0.94954677     0.35610
C1512       C  0.21008447  0.74398056  0.98033164    -0.26390
C1513       C  0.24038857  0.78834103  0.99323359    -0.15630
C1514       C  0.27108161  0.82690977  0.97525175     0.36700
N1515       N  0.30499322  0.87163469  0.98805328    -0.89880
H1516       H  0.28838261  0.85255929  0.93094744     0.17810
H1517       H  0.18669255  0.71433720  0.99409367     0.17800
N1518       N  0.17365369  0.69404166  0.93636279    -0.88910
H1519       H  0.32381385  0.89681513  0.97186946     0.35180
H1520       H  0.32954981  0.86617171  0.49972466     0.40280
H1521       H  0.14734526  0.69797750  0.92583972     0.39900
H1522       H  0.15680662  0.66806560  0.95247559     0.34790
C1523       C  0.26262029  0.80643369  0.73496918    -0.26950
C1524       C  0.21686800  0.77164810  0.74291918    -0.15020
C1525       C  0.18162564  0.74935626  0.72084257     0.35610
C1526       C  0.19316537  0.76259646  0.69148758    -0.26390
C1527       C  0.23903296  0.79741381  0.68345835    -0.15630
C1528       C  0.27417684  0.81991875  0.70570628     0.36700
N1529       N  0.32148874  0.85648515  0.69882965    -0.89880
H1530       H  0.28971915  0.82364932  0.75178751     0.17810
H1531       H  0.16590603  0.74535676  0.67477464     0.17800
N1532       N  0.13394311  0.71438827  0.72816600    -0.88910
H1533       H  0.34345071  0.86649995  0.71744229     0.35180
H1534       H  0.32005294  0.88662765  0.69239184     0.40280
H1535       H  0.13383940  0.68328199  0.73413616     0.39900
H1536       H  0.11162103  0.70551117  0.70977566     0.34790
loop_ 
_geom_bond_atom_site_label_1 
_geom_bond_atom_site_label_2 
_geom_bond_distance 
_geom_bond_site_symmetry_2 
_ccdc_geom_bond_type 
Fe1          O17   2.033       .  S
Fe1           O7   2.097       .  S
Fe1          O14   2.093       .  S
Fe1           O6   2.034       .  S
Fe1          O12   1.926       .  S
Fe2           O5   2.055       .  S
Fe2           O9   2.118       .  S
Fe2          O13   2.012       .  S
Fe2          O18   2.089       .  S
Fe2          O12   1.921       .  S
Fe3          O21   2.109       .  S
Fe3           O8   2.072       .  S
Fe3          O15   2.046       .  S
Fe3           O4   2.113       .  S
Fe3          O12   1.944       .  S
O4           C11   1.268       .  A
O5           C19   1.267       .  A
O6           C11   1.255       .  A
O7           C10   1.280       .  A
O8           C20   1.275       .  A
O9           C22   1.281       .  A
C10          O15   1.277       .  A
C10         C756   1.481       .  S
C11         C689   1.486       .  S
O13          C16   1.260       .  A
O14          C16   1.272       .  A
C16         C700   1.459       .  S
O17          C22   1.265       .  A
O18          C20   1.278       .  A
C19          O21   1.278       .  A
C19         C714   1.493       .  S
C20         C742   1.471       .  S
C22         C731   1.494       .  S
Fe23         O39   2.061       .  S
Fe23         O29   2.107       .  S
Fe23         O36   2.094       .  S
Fe23         O28   2.031       .  S
Fe23         O34   1.934       .  S
Fe24         O27   2.042       .  S
Fe24         O31   2.098       .  S
Fe24         O35   1.987       .  S
Fe24         O40   2.103       .  S
Fe24         O34   1.916       .  S
Fe25         O43   2.107       .  S
Fe25         O30   2.076       .  S
Fe25         O37   2.039       .  S
Fe25         O26   2.111       .  S
Fe25         O34   1.961       .  S
O26          C33   1.263       .  A
O27          C41   1.259       .  A
O28          C33   1.251       .  A
O29          C32   1.289       .  A
O30          C42   1.281       .  A
O31          C44   1.277       .  A
C32          O37   1.280       .  A
C32         C630   1.473       .  S
C33         C619   1.481       .  S
O35          C38   1.260       .  A
O36          C38   1.271       .  A
C38         C661   1.474       .  S
O39          C44   1.268       .  A
O40          C42   1.283       .  A
C41          O43   1.272       .  A
C41         C728   1.477       .  S
C42         C644   1.487       .  S
C44         C675   1.485       .  S
Fe45         O61   2.054       .  S
Fe45         O51   2.075       .  S
Fe45         O58   2.066       .  S
Fe45         O50   2.048       .  S
Fe45         O56   1.940       .  S
Fe46         O49   2.070       .  S
Fe46         O53   2.099       .  S
Fe46         O57   2.040       .  S
Fe46         O62   2.089       .  S
Fe46         O56   1.940       .  S
Fe47         O65   2.089       .  S
Fe47         O52   2.075       .  S
Fe47         O59   2.055       .  S
Fe47         O48   2.092       .  S
Fe47         O56   1.954       .  S
O48          C55   1.266       .  A
O49          C63   1.266       .  A
O50          C55   1.259       .  A
O51          C54   1.277       .  A
O52          C64   1.278       .  A
O53          C66   1.277       .  A
C54          O59   1.279       .  A
C54         C588   1.471       .  S
C55         C549   1.472       .  S
O57          C60   1.265       .  A
O58          C60   1.268       .  A
C60         C560   1.454       .  S
O61          C66   1.268       .  A
O62          C64   1.278       .  A
C63          O65   1.271       .  A
C63         C672   1.482       .  S
C64         C577   1.478       .  S
C66         C602   1.496       .  S
Fe67         O83   2.035       .  S
Fe67         O73   2.087       .  S
Fe67         O80   2.100       .  S
Fe67         O72   2.034       .  S
Fe67         O78   1.933       .  S
Fe68         O71   2.046       .  S
Fe68         O75   2.137       .  S
Fe68         O79   2.021       .  S
Fe68         O84   2.083       .  S
Fe68         O78   1.907       .  S
Fe69         O87   2.110       .  S
Fe69         O74   2.080       .  S
Fe69         O81   2.044       .  S
Fe69         O70   2.116       .  S
Fe69         O78   1.934       .  S
O70          C77   1.272       .  A
O71          C85   1.271       .  A
O72          C77   1.258       .  A
O73          C76   1.276       .  A
O74          C86   1.275       .  A
O75          C88   1.284       .  A
C76          O81   1.276       .  A
C76        C1359   1.479       .  S
C77         C504   1.483       .  S
O79          C82   1.254       .  A
O80          C82   1.268       .  A
C82         C658   1.455       .  S
O83          C88   1.265       .  A
O84          C86   1.273       .  A
C85          O87   1.281       .  A
C85         C518   1.480       .  S
C86         C574   1.475       .  S
C88         C532   1.505       .  S
Fe89        O105   2.037       .  S
Fe89         O95   2.082       .  S
Fe89         O94   2.029       .  S
Fe89        O870   2.075       .  S
Fe89        O868   1.922       .  S
Fe90         O93   2.064       .  S
Fe90         O97   2.117   1_554  S
Fe90        O101   2.032       .  S
Fe90        O106   2.075       .  S
Fe90        O100   1.930       .  S
Fe91        O103   2.048       .  S
Fe91         O92   2.113       .  S
Fe91        O877   2.092       .  S
Fe91        O864   2.080       .  S
Fe91        O868   1.945       .  S
O92          C99   1.268       .  A
O93         C107   1.272       .  A
O94          C99   1.255       .  A
O95          C98   1.276       .  A
O96        Fe859   2.080       .  S
O96         C108   1.278       .  A
O97         C878   1.279       .  A
C98         O103   1.277       .  A
C98         C465   1.484       .  S
C99         C507   1.492       .  S
O100       Fe857   1.922   1_554  S
O100       Fe859   1.945       .  S
O101        C104   1.263       .  A
O102       Fe857   2.075   1_554  S
O102        C104   1.269       .  A
C104        C434   1.464       .  S
O105        C110   1.265       .  A
O106        C108   1.279       .  A
C107        O109   1.275       .  A
C107        C479   1.488       .  S
C108        C451   1.480       .  S
O109       Fe859   2.092       .  S
C110        O865   1.279       .  A
C110        C493   1.477       .  S
Fe111       O127   2.043       .  S
Fe111       O117   2.090       .  S
Fe111       O124   2.062       .  S
Fe111       O116   2.030       .  S
Fe111       O122   1.936       .  S
Fe112       O115   2.059       .  S
Fe112       O119   2.115       .  S
Fe112       O123   2.026       .  S
Fe112       O128   2.100       .  S
Fe112       O122   1.939       .  S
Fe113       O131   2.091       .  S
Fe113       O118   2.083       .  S
Fe113       O125   2.065       .  S
Fe113       O114   2.122       .  S
Fe113       O122   1.967       .  S
O114        C121   1.268       .  A
O115        C129   1.266       .  A
O116        C121   1.251       .  A
O117        C120   1.279       .  A
O118        C130   1.282       .  A
O119        C132   1.281       .  A
C120        O125   1.278       .  A
C120       C1191   1.483   1_554  S
C121        C378   1.482       .  S
O123        C126   1.262       .  A
O124        C126   1.264       .  A
C126        C395   1.453       .  S
O127        C132   1.267       .  A
O128        C130   1.282       .  A
C129        O131   1.271       .  A
C129        C605   1.480       .  S
C130        C409   1.485       .  S
C132        C476   1.505       .  S
Fe133       O149   2.039       .  S
Fe133       O139   2.106       .  S
Fe133       O146   2.088       .  S
Fe133       O138   2.048       .  S
Fe133       O144   1.937       .  S
Fe134       O137   2.068       .  S
Fe134       O141   2.113       .  S
Fe134       O145   2.004       .  S
Fe134       O150   2.092       .  S
Fe134       O144   1.936       .  S
Fe135       O153   2.063       .  S
Fe135       O140   2.085       .  S
Fe135       O147   2.046       .  S
Fe135       O136   2.082       .  S
Fe135       O144   1.944       .  S
O136        C143   1.259       .  A
O137        C151   1.265       .  A
O138        C143   1.253       .  A
O139        C142   1.289       .  A
O140        C152   1.286       .  A
O141        C154   1.280       .  A
C142        O147   1.283       .  A
C142        C367   1.474       .  S
C143        C322   1.475       .  S
O145        C148   1.263       .  A
O146        C148   1.271       .  A
C148        C336   1.472       .  S
O149        C154   1.266       .  A
O150        C152   1.284       .  A
C151        O153   1.264       .  A
C151        C490   1.500       .  S
C152       C1118   1.488       .  S
C154        C717   1.505       .  S
Fe155       O171   2.044       .  S
Fe155       O161   2.101       .  S
Fe155       O168   2.088       .  S
Fe155       O160   2.050       .  S
Fe155       O166   1.942       .  S
Fe156       O159   2.050       .  S
Fe156       O163   2.093       .  S
Fe156       O167   2.018       .  S
Fe156       O172   2.103       .  S
Fe156       O166   1.937       .  S
Fe157       O175   2.088       .  S
Fe157       O162   2.081       .  S
Fe157       O169   2.053       .  S
Fe157       O158   2.086       .  S
Fe157       O166   1.955       .  S
O158        C165   1.262       .  A
O159        C173   1.259       .  A
O160        C165   1.256       .  A
O161        C164   1.285       .  A
O162        C174   1.282       .  A
O163        C176   1.275       .  A
C164        O169   1.282       .  A
C164        C420   1.469       .  S
C165        C325   1.476       .  S
O167        C170   1.264       .  A
O168        C170   1.273       .  A
C170        C563   1.474       .  S
O171        C176   1.266       .  A
O172        C174   1.283       .  A
C173        O175   1.266       .  A
C173        C311   1.473       .  S
C174        C406   1.482       .  S
C176        C521   1.495       .  S
Fe177       O193   2.033       .  S
Fe177       O183   2.083       .  S
Fe177       O190   2.126       .  S
Fe177       O182   2.049       .  S
Fe177       O188   1.946       .  S
Fe178       O181   2.053       .  S
Fe178       O185   2.137       .  S
Fe178       O189   2.004       .  S
Fe178       O194   2.073       .  S
Fe178       O188   1.904       .  S
Fe179       O197   2.119       .  S
Fe179       O184   2.089       .  S
Fe179       O191   2.058       .  S
Fe179       O180   2.105       .  S
Fe179       O188   1.922       .  S
O180        C187   1.274       .  A
O181        C195   1.274       .  A
O182        C187   1.266       .  A
O183        C186   1.277       .  A
O184        C196   1.274       .  A
O185        C198   1.284       .  A
C186        O191   1.278       .  A
C186        C759   1.487       .  S
C187        C546   1.474       .  S
O189        C192   1.244       .  A
O190        C192   1.268       .  A
C192        C339   1.468       .  S
O193        C198   1.266       .  A
O194        C196   1.271       .  A
C195        O197   1.283       .  A
C195        C283   1.488       .  S
C196       C1513   1.480   1_554  S
C198        C297   1.502       .  S
Fe199       O215   2.050       .  S
Fe199       O205   2.082       .  S
Fe199       O212   2.050       .  S
Fe199       O204   2.025       .  S
Fe199       O210   1.925       .  S
Fe200       O203   2.065       .  S
Fe200       O207   2.091       .  S
Fe200       O211   2.048       .  S
Fe200       O216   2.070       .  S
Fe200       O210   1.922       .  S
Fe201       O219   2.098       .  S
Fe201       O206   2.097       .  S
Fe201       O213   2.058       .  S
Fe201       O202   2.113       .  S
Fe201       O210   1.958       .  S
O202        C209   1.263       .  A
O203        C217   1.268       .  A
O204        C209   1.249       .  A
O205        C208   1.281       .  A
O206        C218   1.284       .  A
O207        C220   1.276       .  A
C208        O213   1.284       .  A
C208        C462   1.481       .  S
C209        C686   1.495       .  S
O211        C214   1.268       .  A
O212        C214   1.264       .  A
C214        C392   1.461       .  S
O215        C220   1.268       .  A
O216        C218   1.274       .  A
C217        O219   1.273       .  A
C217        C266   1.483       .  S
C218        C448   1.490       .  S
C220        C308   1.489       .  S
Fe221       O237   2.036       .  S
Fe221       O227   2.093       .  S
Fe221       O226   2.041       .  S
Fe221      O1002   2.127   1_554  S
Fe221       O232   1.931       .  S
Fe222       O225   2.052       .  S
Fe222       O233   2.007       .  S
Fe222       O238   2.066       .  S
Fe222       O997   2.139       .  S
Fe222      O1000   1.908       .  S
Fe223       O235   2.039       .  S
Fe223       O224   2.112       .  S
Fe223      O1009   2.122   1_554  S
Fe223       O996   2.081   1_554  S
Fe223       O232   1.927       .  S
O224        C231   1.274       .  A
O225        C239   1.274       .  A
O226        C231   1.264       .  A
O227        C230   1.282       .  A
O228       Fe991   2.081       .  S
O228        C240   1.272       .  A
O229       Fe990   2.139   1_554  S
O229        C242   1.283       .  A
C230        O235   1.272       .  A
C230        C633   1.481       .  S
C231        C381   1.489       .  S
O232       Fe990   1.908   1_554  S
O233        C236   1.250       .  A
O234       Fe989   2.127       .  S
O234        C236   1.274       .  A
C236        C703   1.469       .  S
O237        C242   1.265       .  A
O238        C240   1.270       .  A
C239        O241   1.284       .  A
C239        C535   1.487       .  S
C240        C647   1.473       .  S
O241       Fe991   2.122       .  S
C242        C280   1.505   1_655  S
Fe243       O259   2.051       .  S
Fe243       O249   2.077       .  S
Fe243       O256   2.088       .  S
Fe243       O248   2.035       .  S
Fe243       O254   1.937       .  S
Fe244       O247   2.054       .  S
Fe244       O251   2.107       .  S
Fe244       O255   2.025       .  S
Fe244       O260   2.078       .  S
Fe244       O254   1.937       .  S
Fe245       O263   2.104       .  S
Fe245       O250   2.082       .  S
Fe245       O257   2.055       .  S
Fe245       O246   2.110       .  S
Fe245       O254   1.947       .  S
O246        C253   1.273       .  A
O247        C261   1.270       .  A
O248        C253   1.261       .  A
O249        C252   1.277       .  A
O250        C262   1.274       .  A
O251        C264   1.276       .  A
C252        O257   1.274       .  A
C252        C364   1.480       .  S
C253        C616   1.493       .  S
O255        C258   1.264       .  A
O256        C258   1.273       .  A
C258        C437   1.464       .  S
O259        C264   1.264       .  A
O260        C262   1.274       .  A
C261        O263   1.278       .  A
C261        C294   1.483       .  S
C262        C353   1.478       .  S
C264        C269   1.489       .  S
C265        C266   1.405       .  A
C265        C270   1.405       .  A
C265        H272   1.083       .  S
C266        C267   1.414       .  A
C267        C268   1.411       .  A
C267        N274   1.437       .  S
C268        C269   1.411       .  A
C268        H273   1.084       .  S
C269        C270   1.412       .  A
C270        N271   1.439       .  S
N271        H275   1.046       .  S
N271        H276   1.045       .  S
N274        H277   1.044       .  S
N274        H278   1.045       .  S
C279        C280   1.414       .  A
C279        C284   1.406       .  A
C279        H286   1.083   1_455  S
C280        C281   1.413       .  A
C281        C282   1.412       .  A
C281       N1056   1.432   1_554  S
C282        C283   1.408       .  A
C282        H287   1.084       .  S
C283        C284   1.413       .  A
C284        N285   1.439       .  S
N285        H289   1.046       .  S
N285        H290   1.043       .  S
N288       C1049   1.432       .  S
N288        H291   1.045       .  S
N288        H292   1.046       .  S
C293        C294   1.407       .  A
C293        C298   1.413       .  A
C293        H300   1.084       .  S
C294        C295   1.406       .  A
C295        C296   1.407       .  A
C295        N302   1.439       .  S
C296        C297   1.415   1_545  A
C296        H301   1.083   1_545  S
C297        C298   1.415   1_565  A
C298        N299   1.437       .  S
N299        H303   1.046       .  S
N299        H304   1.046   1_545  S
N302        H305   1.045       .  S
N302        H306   1.046       .  S
C307        C308   1.413       .  A
C307        C312   1.411   1_455  A
C307        H314   1.084       .  S
C308        C309   1.426   1_455  A
C309        C310   1.400       .  A
C309        N316   1.442       .  S
C310        C311   1.399       .  A
C310        H315   1.085       .  S
C311        C312   1.404       .  A
C312        N313   1.437       .  S
N313        H317   1.046       .  S
N313        H318   1.046       .  S
N316        H319   1.037   1_655  S
N316        H320   1.046       .  S
C321        C322   1.406       .  A
C321        C326   1.403       .  A
C321        H328   1.084       .  S
C322        C323   1.412       .  A
C323        C324   1.404       .  A
C323        N330   1.438       .  S
C324        C325   1.407       .  A
C324        H329   1.084       .  S
C325        C326   1.412       .  A
C326        N327   1.438       .  S
N327        H331   1.046       .  S
N327        H332   1.044       .  S
N330        H333   1.044       .  S
N330        H334   1.046       .  S
C335        C336   1.399       .  A
C335       C1108   1.375   1_545  A
C335        H342   1.086       .  S
C336       C1105   1.423       .  A
C337        C338   1.416   1_556  A
C337       C1104   1.423       .  A
C337        N344   1.436       .  S
C338        C339   1.405   1_545  A
C338        H343   1.083       .  S
C339        C340   1.408       .  A
C340       C1103   1.375   1_564  A
C340        N341   1.437       .  S
N341        H346   1.046   1_554  S
N341       H1113   1.046       .  S
N344        H348   1.045       .  S
N344       H1115   1.042       .  S
H345       N1109   1.046       .  S
H347       N1112   1.042       .  S
C349        C350   1.407       .  A
C349        C354   1.417       .  A
C349        H356   1.083       .  S
C350        C920   1.488   1_554  S
C350        C351   1.414       .  A
C351        C352   1.395       .  A
C351        N358   1.433       .  S
C352        C353   1.398       .  A
C352        H357   1.085       .  S
C353        C354   1.413       .  A
C354        N355   1.436       .  S
N355        H359   1.046       .  S
N355        H360   1.045       .  S
N358        H362   1.046       .  S
N358       H1129   1.046       .  S
H361       N1126   1.046       .  S
C363        C364   1.406       .  A
C363        C368   1.400       .  A
C363        H370   1.084       .  S
C364        C365   1.414       .  A
C365        C366   1.404       .  A
C365        N372   1.438       .  S
C366        C367   1.404       .  A
C366        H371   1.084       .  S
C367        C368   1.410       .  A
C368        N369   1.439       .  S
N369        H373   1.046       .  S
N369        H374   1.046       .  S
N372        H375   1.046       .  S
N372        H376   1.046       .  S
C377        C378   1.403       .  A
C377        C382   1.395       .  A
C377        H384   1.083       .  S
C378        C379   1.416       .  A
C379        C380   1.414       .  A
C379        N386   1.437       .  S
C380        C381   1.412       .  A
C380        H385   1.084       .  S
C381        C382   1.408       .  A
C382       N1151   1.434   1_554  S
N383       C1150   1.434       .  S
N383        H387   1.045       .  S
N383        H388   1.046       .  S
N386        H389   1.043       .  S
N386        H390   1.045       .  S
C391        C392   1.401       .  A
C391        C396   1.393       .  A
C391        H398   1.082       .  S
C392        C393   1.405       .  A
C393        C394   1.401   1_455  A
C393        N400   1.437   1_455  S
C394        C395   1.404       .  A
C394        H399   1.084       .  S
C395        C396   1.409   1_655  A
C396        N397   1.438       .  S
N397        H401   1.046       .  S
N397        H402   1.044       .  S
N400        H403   1.046       .  S
N400        H404   1.045       .  S
C405        C406   1.405       .  A
C405        C410   1.411       .  A
C405        H412   1.082       .  S
C406        C407   1.415       .  A
C407        C408   1.408       .  A
C407        N414   1.438       .  S
C408        C409   1.406       .  A
C408        H413   1.083       .  S
C409        C410   1.409       .  A
C410        N411   1.437       .  S
N411        H415   1.046       .  S
N411        H416   1.046       .  S
N414        H417   1.043       .  S
N414        H418   1.045       .  S
C419        C420   1.396       .  A
C419        C424   1.391       .  A
C419        H426   1.085       .  S
C420        C421   1.410       .  A
C421        C422   1.409       .  A
C421        N428   1.438       .  S
C422        C423   1.407       .  A
C422        H427   1.084       .  S
C423        C888   1.483       .  S
C423        C424   1.419       .  A
C424        N425   1.430       .  S
N425        H429   1.043       .  S
N425        H430   1.045       .  S
N428        H431   1.045       .  S
N428        H432   1.046       .  S
C433        C434   1.397       .  A
C433        C438   1.396       .  A
C433        H440   1.084       .  S
C434        C435   1.412       .  A
C435        C436   1.400       .  A
C435        N442   1.438       .  S
C436        C437   1.398       .  A
C436        H441   1.084       .  S
C437        C438   1.418       .  A
C438        N439   1.437       .  S
N439        H443   1.046       .  S
N439        H444   1.045       .  S
N442        H445   1.045       .  S
N442        H446   1.046       .  S
C447        C448   1.409       .  A
C447        C452   1.418       .  A
C447        H454   1.083       .  S
C448        C449   1.419       .  A
C449        C450   1.389       .  A
C449        N456   1.435       .  S
C450        C451   1.397       .  A
C450        H455   1.085       .  S
C451        C452   1.414       .  A
C452        N453   1.436       .  S
N453        H457   1.046       .  S
N453        H458   1.045       .  S
N456        H459   1.046       .  S
N456        H460   1.045       .  S
C461        C462   1.402       .  A
C461        C466   1.402       .  A
C461        H468   1.083       .  S
C462        C463   1.418       .  A
C463        C464   1.399       .  A
C463        N470   1.439       .  S
C464        C465   1.403       .  A
C464        H469   1.083       .  S
C465        C466   1.419       .  A
C466        N467   1.439       .  S
N467        H471   1.046       .  S
N467        H472   1.046       .  S
N470        H473   1.046       .  S
N470        H474   1.046       .  S
C475        C476   1.409   1_455  A
C475        C480   1.415       .  A
C475        H482   1.083       .  S
C476        C477   1.425   1_655  A
C477        C478   1.406       .  A
C477        N484   1.439   1_455  S
C478        C479   1.399       .  A
C478        H483   1.084   1_554  S
C479        C480   1.415       .  A
C480        N481   1.438       .  S
N481        H485   1.046       .  S
N481        H486   1.045       .  S
N484        H487   1.045   1_554  S
N484        H488   1.046   1_654  S
C489        C490   1.415       .  A
C489        C494   1.421       .  A
C489        H496   1.083       .  S
C490        C491   1.423       .  A
C491        C492   1.395       .  A
C491        N498   1.440       .  S
C492        C493   1.396       .  A
C492        H497   1.085       .  S
C493        C494   1.408       .  A
C494        N495   1.436       .  S
N495        H499   1.046       .  S
N495        H500   1.046       .  S
N498        H501   1.046       .  S
N498        H502   1.046       .  S
C503        C504   1.404       .  A
C503        C508   1.416       .  A
C503        H510   1.083       .  S
C504        C505   1.415       .  A
C505        C506   1.396       .  A
C505        N512   1.440       .  S
C506        C507   1.404       .  A
C506        H511   1.083       .  S
C507        C508   1.418       .  A
C508        N509   1.436       .  S
N509        H513   1.046       .  S
N509        H514   1.045       .  S
N512        H515   1.045       .  S
N512        H516   1.046       .  S
C517        C518   1.406       .  A
C517        C522   1.412       .  A
C517        H524   1.084       .  S
C518        C519   1.403       .  A
C519        C520   1.401       .  A
C519        N526   1.432       .  S
C520        C521   1.411   1_565  A
C520        H525   1.084   1_565  S
C521        C522   1.416   1_545  A
C522        N523   1.437       .  S
N523        H527   1.046       .  S
N523        H528   1.045   1_565  S
N526        H529   1.046       .  S
N526        H530   1.046       .  S
C531        C532   1.407       .  A
C531        C536   1.413       .  A
C531        H538   1.083       .  S
C532        C533   1.425       .  A
C533        C534   1.409       .  A
C533       N1308   1.438       .  S
C534        C535   1.398       .  A
C534       H1307   1.084       .  S
C535        C536   1.415       .  A
C536        N537   1.438       .  S
N537        H541   1.046       .  S
N537        H542   1.044       .  S
H539       C1302   1.084       .  S
N540       C1301   1.438   1_554  S
N540        H544   1.046       .  S
N540       H1311   1.046       .  S
H543       N1308   1.046       .  S
C545        C546   1.407       .  A
C545        C550   1.408       .  A
C545        H552   1.084       .  S
C546        C547   1.413       .  A
C547        C548   1.402       .  A
C547        N554   1.439       .  S
C548        C549   1.404       .  A
C548        H553   1.084       .  S
C549        C550   1.406       .  A
C550        N551   1.437       .  S
N551        H555   1.046       .  S
N551        H556   1.045       .  S
N554        H557   1.044       .  S
N554        H558   1.046       .  S
C559        C560   1.403       .  A
C559        C564   1.410   1_565  A
C559        H566   1.084       .  S
C560        C561   1.398   1_565  A
C561        C562   1.388       .  A
C561        N568   1.434       .  S
C562        C563   1.407       .  A
C562        H567   1.082       .  S
C563        C564   1.411       .  A
C564        N565   1.436   1_545  S
N565        H569   1.046       .  S
N565        H570   1.046   1_565  S
N568        H571   1.046       .  S
N568        H572   1.043       .  S
C573        C574   1.406       .  A
C573        C578   1.407       .  A
C573        H580   1.084       .  S
C574        C575   1.414       .  A
C575        C576   1.401       .  A
C575        N582   1.439       .  S
C576        C577   1.404       .  A
C576        H581   1.085       .  S
C577        C578   1.416       .  A
C578        N579   1.438       .  S
N579        H583   1.046       .  S
N579        H584   1.043       .  S
N582        H585   1.044       .  S
N582        H586   1.046       .  S
C587        C588   1.399       .  A
C587        C592   1.394       .  A
C587        H594   1.084       .  S
C588        C589   1.413       .  A
C589        C590   1.399       .  A
C589        N596   1.437       .  S
C590        C591   1.403       .  A
C590        H595   1.084       .  S
C591        C844   1.479   1_554  S
C591        C592   1.420       .  A
C592        N593   1.432       .  S
N593        H597   1.044       .  S
N593        H598   1.045       .  S
N596        H599   1.045       .  S
N596        H600   1.046       .  S
C601        C602   1.405   1_545  A
C601        C606   1.406       .  A
C601        H608   1.084       .  S
C602        C603   1.418   1_565  A
C603        C604   1.408       .  A
C603        N610   1.435   1_545  S
C604        C605   1.399       .  A
C604        H609   1.084       .  S
C605        C606   1.420       .  A
C606        N607   1.439       .  S
N607        H611   1.046       .  S
N607        H612   1.041       .  S
N610        H613   1.045       .  S
N610        H614   1.046       .  S
C615        C616   1.412       .  A
C615        C620   1.417       .  A
C615        H622   1.083       .  S
C616        C617   1.416       .  A
C617        C618   1.399       .  A
C617        N624   1.439       .  S
C618        C619   1.401       .  A
C618        H623   1.084       .  S
C619        C620   1.409       .  A
C620        N621   1.436       .  S
N621        H625   1.046       .  S
N621        H626   1.045       .  S
N624        H627   1.045       .  S
N624        H628   1.046       .  S
C629        C630   1.402       .  A
C629        C634   1.394       .  A
C629        H636   1.084       .  S
C630        C631   1.412       .  A
C631        C632   1.400       .  A
C631        N638   1.439       .  S
C632        C633   1.406       .  A
C632        H637   1.083       .  S
C633        C634   1.419       .  A
C634        N635   1.433       .  S
N635        H639   1.045       .  S
N635        H640   1.046       .  S
N638        H641   1.045       .  S
N638        H642   1.046       .  S
C643        C644   1.406       .  A
C643        C648   1.412       .  A
C643        H650   1.084       .  S
C644        C645   1.414       .  A
C645        C646   1.396       .  A
C645        N652   1.433       .  S
C646        C647   1.395       .  A
C646        H651   1.085       .  S
C647        C648   1.420       .  A
C648        N649   1.438       .  S
N649        H653   1.045       .  S
N649        H654   1.043       .  S
N652        H655   1.045       .  S
N652        H656   1.046       .  S
C657        C658   1.407       .  A
C657        C662   1.419       .  A
C657        H664   1.083       .  S
C658        C659   1.401       .  A
C659        C660   1.370       .  A
C659        N666   1.435       .  S
C660        C661   1.403       .  A
C660        H665   1.085       .  S
C661        C662   1.413       .  A
C662        N663   1.435       .  S
N663        H667   1.046       .  S
N663        H668   1.046       .  S
N666        H669   1.046       .  S
N666        H670   1.046       .  S
C671        C672   1.398       .  A
C671        C676   1.395       .  A
C671        H678   1.085       .  S
C672        C673   1.419       .  A
C673        C674   1.416       .  A
C673        N680   1.437       .  S
C674        C675   1.408       .  A
C674        H679   1.084       .  S
C675        C676   1.419       .  A
C676        N677   1.438       .  S
N677        H681   1.046       .  S
N677        H682   1.038       .  S
N680        H683   1.044       .  S
N680        H684   1.045       .  S
C685        C686   1.406       .  A
C685        C690   1.395       .  A
C685        H692   1.083       .  S
C686        C687   1.418       .  A
C687        C688   1.418       .  A
C687        N694   1.437       .  S
C688        C689   1.406       .  A
C688        H693   1.083       .  S
C689        C690   1.415       .  A
C690        N691   1.440       .  S
N691        H695   1.046       .  S
N691        H696   1.043       .  S
N694        H697   1.046       .  S
N694        H698   1.046       .  S
C699        C700   1.394       .  A
C699        C704   1.377   1_455  A
C699        H706   1.086       .  S
C700        C701   1.418       .  A
C701        C702   1.415       .  A
C701        N708   1.436       .  S
C702        C703   1.406   1_455  A
C702        H707   1.083   1_455  S
C703        C704   1.411       .  A
C704        N705   1.437       .  S
N705        H709   1.046       .  S
N705        H710   1.046       .  S
N708        H711   1.044       .  S
N708        H712   1.045       .  S
C713        C714   1.411       .  A
C713        C718   1.418       .  A
C713        H720   1.083       .  S
C714        C715   1.405       .  A
C715        C716   1.401       .  A
C715        N722   1.433       .  S
C716        C717   1.414   1_565  A
C716        H721   1.083   1_565  S
C717        C718   1.416   1_545  A
C718        N719   1.436   1_565  S
N719        H723   1.046   1_545  S
N719        H724   1.046       .  S
N722        H725   1.046       .  S
N722        H726   1.045       .  S
C727        C728   1.405       .  A
C727        C732   1.409       .  A
C727        H734   1.084       .  S
C728        C729   1.410       .  A
C729        C730   1.404   1_655  A
C729        N736   1.438       .  S
C730        C731   1.413       .  A
C730        H735   1.084       .  S
C731        C732   1.414   1_455  A
C732        N733   1.437       .  S
N733        H737   1.046       .  S
N733        H738   1.045   1_655  S
N736        H739   1.044       .  S
N736        H740   1.045       .  S
C741        C742   1.394       .  A
C741        C746   1.400       .  A
C741        H748   1.084       .  S
C742        C743   1.414       .  A
C743        C744   1.413       .  A
C743        N750   1.437       .  S
C744        C745   1.402       .  A
C744        H749   1.084       .  S
C745        C964   1.480       .  S
C745        C746   1.414       .  A
C746        N747   1.434       .  S
N747        H751   1.046       .  S
N747       H1520   1.045       .  S
N750        H753   1.043       .  S
N750        H754   1.046       .  S
H752       N1515   1.045       .  S
C755        C756   1.401       .  A
C755        C760   1.401       .  A
C755        H762   1.084       .  S
C756        C757   1.415       .  A
C757        C758   1.403       .  A
C757        N764   1.439       .  S
C758        C759   1.405       .  A
C758        H763   1.083       .  S
C759        C760   1.420       .  A
C760        N761   1.439       .  S
N761        H765   1.046       .  S
N761        H766   1.046       .  S
N764        H767   1.045       .  S
N764        H768   1.046       .  S
Fe769       O785   2.033       .  S
Fe769       O775   2.097       .  S
Fe769       O782   2.093       .  S
Fe769       O774   2.034       .  S
Fe769       O780   1.926       .  S
Fe770       O773   2.055       .  S
Fe770       O777   2.118       .  S
Fe770       O781   2.012       .  S
Fe770       O786   2.089       .  S
Fe770       O780   1.921       .  S
Fe771       O789   2.109       .  S
Fe771       O776   2.072       .  S
Fe771       O783   2.046       .  S
Fe771       O772   2.113       .  S
Fe771       O780   1.944       .  S
O772        C779   1.268       .  A
O773        C787   1.267       .  A
O774        C779   1.255       .  A
O775        C778   1.280       .  A
O776        C788   1.275       .  A
O777        C790   1.281       .  A
C778        O783   1.277       .  A
C778       C1524   1.481       .  S
C779       C1457   1.486       .  S
O781        C784   1.260       .  A
O782        C784   1.272       .  A
C784       C1468   1.459       .  S
O785        C790   1.265       .  A
O786        C788   1.278       .  A
C787        O789   1.278       .  A
C787       C1482   1.493       .  S
C788       C1510   1.471       .  S
C790       C1499   1.494       .  S
Fe791       O807   2.061       .  S
Fe791       O797   2.107       .  S
Fe791       O804   2.094       .  S
Fe791       O796   2.031       .  S
Fe791       O802   1.934       .  S
Fe792       O795   2.042       .  S
Fe792       O799   2.098       .  S
Fe792       O803   1.987       .  S
Fe792       O808   2.103       .  S
Fe792       O802   1.916       .  S
Fe793       O811   2.107       .  S
Fe793       O798   2.076       .  S
Fe793       O805   2.039       .  S
Fe793       O794   2.111       .  S
Fe793       O802   1.961       .  S
O794        C801   1.263       .  A
O795        C809   1.259       .  A
O796        C801   1.251       .  A
O797        C800   1.289       .  A
O798        C810   1.281       .  A
O799        C812   1.277       .  A
C800        O805   1.280       .  A
C800       C1398   1.473       .  S
C801       C1387   1.481       .  S
O803        C806   1.260       .  A
O804        C806   1.271       .  A
C806       C1429   1.474       .  S
O807        C812   1.268       .  A
O808        C810   1.283       .  A
C809        O811   1.272       .  A
C809       C1496   1.477       .  S
C810       C1412   1.487       .  S
C812       C1443   1.485       .  S
Fe813       O829   2.054       .  S
Fe813       O819   2.075       .  S
Fe813       O826   2.066       .  S
Fe813       O818   2.048       .  S
Fe813       O824   1.940       .  S
Fe814       O817   2.070       .  S
Fe814       O821   2.099       .  S
Fe814       O825   2.040       .  S
Fe814       O830   2.089       .  S
Fe814       O824   1.940       .  S
Fe815       O833   2.089       .  S
Fe815       O820   2.075       .  S
Fe815       O827   2.055       .  S
Fe815       O816   2.092       .  S
Fe815       O824   1.954       .  S
O816        C823   1.266       .  A
O817        C831   1.266       .  A
O818        C823   1.259       .  A
O819        C822   1.277       .  A
O820        C832   1.278       .  A
O821        C834   1.277       .  A
C822        O827   1.279       .  A
C822       C1356   1.471       .  S
C823       C1317   1.472       .  S
O825        C828   1.265       .  A
O826        C828   1.268       .  A
C828       C1328   1.454       .  S
O829        C834   1.268       .  A
O830        C832   1.278       .  A
C831        O833   1.271       .  A
C831       C1440   1.482       .  S
C832       C1345   1.478       .  S
C834       C1370   1.496       .  S
Fe835       O851   2.035       .  S
Fe835       O841   2.087       .  S
Fe835       O848   2.100       .  S
Fe835       O840   2.034       .  S
Fe835       O846   1.933       .  S
Fe836       O839   2.046       .  S
Fe836       O843   2.137       .  S
Fe836       O847   2.021       .  S
Fe836       O852   2.083       .  S
Fe836       O846   1.907       .  S
Fe837       O855   2.110       .  S
Fe837       O842   2.080       .  S
Fe837       O849   2.044       .  S
Fe837       O838   2.116       .  S
Fe837       O846   1.934       .  S
O838        C845   1.272       .  A
O839        C853   1.271       .  A
O840        C845   1.258       .  A
O841        C844   1.276       .  A
O842        C854   1.275       .  A
O843        C856   1.284       .  A
C844        O849   1.276       .  A
C845       C1272   1.483       .  S
O847        C850   1.254       .  A
O848        C850   1.268       .  A
C850       C1426   1.455       .  S
O851        C856   1.265       .  A
O852        C854   1.273       .  A
C853        O855   1.281       .  A
C853       C1286   1.480       .  S
C854       C1342   1.475       .  S
C856       C1300   1.505       .  S
Fe857       O873   2.037       .  S
Fe857       O863   2.082       .  S
Fe857       O862   2.029   1_556  S
Fe858       O861   2.064       .  S
Fe858       O865   2.117       .  S
Fe858       O869   2.032       .  S
Fe858       O874   2.075       .  S
Fe858       O868   1.930       .  S
Fe859       O871   2.048   1_554  S
Fe859       O860   2.113   1_554  S
O860        C867   1.268       .  A
O861        C875   1.272       .  A
O862        C867   1.255   1_554  A
O863        C866   1.276       .  A
O864        C876   1.278       .  A
C866        O871   1.277       .  A
C866       C1233   1.484       .  S
C867       C1275   1.492       .  S
O869        C872   1.263       .  A
O870        C872   1.269       .  A
C872       C1202   1.464       .  S
O873        C878   1.265       .  A
O874        C876   1.279       .  A
C875        O877   1.275       .  A
C875       C1247   1.488       .  S
C876       C1219   1.480       .  S
C878       C1261   1.477       .  S
Fe879       O895   2.043       .  S
Fe879       O885   2.090       .  S
Fe879       O892   2.062       .  S
Fe879       O884   2.030       .  S
Fe879       O890   1.936       .  S
Fe880       O883   2.059       .  S
Fe880       O887   2.115       .  S
Fe880       O891   2.026       .  S
Fe880       O896   2.100       .  S
Fe880       O890   1.939       .  S
Fe881       O899   2.091       .  S
Fe881       O886   2.083       .  S
Fe881       O893   2.065       .  S
Fe881       O882   2.122       .  S
Fe881       O890   1.967       .  S
O882        C889   1.268       .  A
O883        C897   1.266       .  A
O884        C889   1.251       .  A
O885        C888   1.279       .  A
O886        C898   1.282       .  A
O887        C900   1.281       .  A
C888        O893   1.278       .  A
C889       C1146   1.482       .  S
O891        C894   1.262       .  A
O892        C894   1.264       .  A
C894       C1163   1.453       .  S
O895        C900   1.267       .  A
O896        C898   1.282       .  A
C897        O899   1.271       .  A
C897       C1373   1.480       .  S
C898       C1177   1.485       .  S
C900       C1244   1.505       .  S
Fe901       O917   2.039       .  S
Fe901       O907   2.106       .  S
Fe901       O914   2.088       .  S
Fe901       O906   2.048       .  S
Fe901       O912   1.937       .  S
Fe902       O905   2.068       .  S
Fe902       O909   2.113       .  S
Fe902       O913   2.004       .  S
Fe902       O918   2.092       .  S
Fe902       O912   1.936       .  S
Fe903       O921   2.063       .  S
Fe903       O908   2.085       .  S
Fe903       O915   2.046       .  S
Fe903       O904   2.082       .  S
Fe903       O912   1.944       .  S
O904        C911   1.259       .  A
O905        C919   1.265       .  A
O906        C911   1.253       .  A
O907        C910   1.289       .  A
O908        C920   1.286       .  A
O909        C922   1.280       .  A
C910        O915   1.283       .  A
C910       C1135   1.474       .  S
C911       C1090   1.475       .  S
O913        C916   1.263       .  A
O914        C916   1.271       .  A
C916       C1104   1.472       .  S
O917        C922   1.266       .  A
O918        C920   1.284       .  A
C919        O921   1.264       .  A
C919       C1258   1.500       .  S
C922       C1485   1.505       .  S
Fe923       O939   2.044       .  S
Fe923       O929   2.101       .  S
Fe923       O936   2.088       .  S
Fe923       O928   2.050       .  S
Fe923       O934   1.942       .  S
Fe924       O927   2.050       .  S
Fe924       O931   2.093       .  S
Fe924       O935   2.018       .  S
Fe924       O940   2.103       .  S
Fe924       O934   1.937       .  S
Fe925       O943   2.088       .  S
Fe925       O930   2.081       .  S
Fe925       O937   2.053       .  S
Fe925       O926   2.086       .  S
Fe925       O934   1.955       .  S
O926        C933   1.262       .  A
O927        C941   1.259       .  A
O928        C933   1.256       .  A
O929        C932   1.285       .  A
O930        C942   1.282       .  A
O931        C944   1.275       .  A
C932        O937   1.282       .  A
C932       C1188   1.469       .  S
C933       C1093   1.476       .  S
O935        C938   1.264       .  A
O936        C938   1.273       .  A
C938       C1331   1.474       .  S
O939        C944   1.266       .  A
O940        C942   1.283       .  A
C941        O943   1.266       .  A
C941       C1079   1.473       .  S
C942       C1174   1.482       .  S
C944       C1289   1.495       .  S
Fe945       O961   2.033       .  S
Fe945       O951   2.083       .  S
Fe945       O958   2.126       .  S
Fe945       O950   2.049       .  S
Fe945       O956   1.946       .  S
Fe946       O949   2.053       .  S
Fe946       O953   2.137       .  S
Fe946       O957   2.004       .  S
Fe946       O962   2.073       .  S
Fe946       O956   1.904       .  S
Fe947       O965   2.119       .  S
Fe947       O952   2.089       .  S
Fe947       O959   2.058       .  S
Fe947       O948   2.105       .  S
Fe947       O956   1.922       .  S
O948        C955   1.274       .  A
O949        C963   1.274       .  A
O950        C955   1.266       .  A
O951        C954   1.277       .  A
O952        C964   1.274       .  A
O953        C966   1.284       .  A
C954        O959   1.278       .  A
C954       C1527   1.487       .  S
C955       C1314   1.474       .  S
O957        C960   1.244       .  A
O958        C960   1.268       .  A
C960       C1107   1.468       .  S
O961        C966   1.266       .  A
O962        C964   1.271       .  A
C963        O965   1.283       .  A
C963       C1051   1.488       .  S
C966       C1065   1.502       .  S
Fe967       O983   2.050       .  S
Fe967       O973   2.082       .  S
Fe967       O980   2.050       .  S
Fe967       O972   2.025       .  S
Fe967       O978   1.925       .  S
Fe968       O971   2.065       .  S
Fe968       O975   2.091       .  S
Fe968       O979   2.048       .  S
Fe968       O984   2.070       .  S
Fe968       O978   1.922       .  S
Fe969       O987   2.098       .  S
Fe969       O974   2.097       .  S
Fe969       O981   2.058       .  S
Fe969       O970   2.113       .  S
Fe969       O978   1.958       .  S
O970        C977   1.263       .  A
O971        C985   1.268       .  A
O972        C977   1.249       .  A
O973        C976   1.281       .  A
O974        C986   1.284       .  A
O975        C988   1.276       .  A
C976        O981   1.284       .  A
C976       C1230   1.481       .  S
C977       C1454   1.495       .  S
O979        C982   1.268       .  A
O980        C982   1.264       .  A
C982       C1160   1.461       .  S
O983        C988   1.268       .  A
O984        C986   1.274       .  A
C985        O987   1.273       .  A
C985       C1034   1.483       .  S
C986       C1216   1.490       .  S
C988       C1076   1.489       .  S
Fe989      O1005   2.036       .  S
Fe989       O995   2.093       .  S
Fe989       O994   2.041       .  S
Fe989      O1000   1.931       .  S
Fe990       O993   2.052       .  S
Fe990      O1001   2.007       .  S
Fe990      O1006   2.066       .  S
Fe991      O1003   2.039       .  S
Fe991       O992   2.112       .  S
Fe991      O1000   1.927       .  S
O992        C999   1.274       .  A
O993       C1007   1.274       .  A
O994        C999   1.264       .  A
O995        C998   1.282       .  A
O996       C1008   1.272       .  A
O997       C1010   1.283       .  A
C998       O1003   1.272       .  A
C998       C1401   1.481       .  S
C999       C1149   1.489       .  S
O1001      C1004   1.250       .  A
O1002      C1004   1.274       .  A
C1004      C1471   1.469       .  S
O1005      C1010   1.265       .  A
O1006      C1008   1.270       .  A
C1007      O1009   1.284       .  A
C1007      C1303   1.487       .  S
C1008      C1415   1.473       .  S
C1010      C1048   1.505   1_655  S
Fe1011     O1027   2.051       .  S
Fe1011     O1017   2.077       .  S
Fe1011     O1024   2.088       .  S
Fe1011     O1016   2.035       .  S
Fe1011     O1022   1.937       .  S
Fe1012     O1015   2.054       .  S
Fe1012     O1019   2.107       .  S
Fe1012     O1023   2.025       .  S
Fe1012     O1028   2.078       .  S
Fe1012     O1022   1.937       .  S
Fe1013     O1031   2.104       .  S
Fe1013     O1018   2.082       .  S
Fe1013     O1025   2.055       .  S
Fe1013     O1014   2.110       .  S
Fe1013     O1022   1.947       .  S
O1014      C1021   1.273       .  A
O1015      C1029   1.270       .  A
O1016      C1021   1.261       .  A
O1017      C1020   1.277       .  A
O1018      C1030   1.274       .  A
O1019      C1032   1.276       .  A
C1020      O1025   1.274       .  A
C1020      C1132   1.480       .  S
C1021      C1384   1.493       .  S
O1023      C1026   1.264       .  A
O1024      C1026   1.273       .  A
C1026      C1205   1.464       .  S
O1027      C1032   1.264       .  A
O1028      C1030   1.274       .  A
C1029      O1031   1.278       .  A
C1029      C1062   1.483       .  S
C1030      C1121   1.478       .  S
C1032      C1037   1.489       .  S
C1033      C1034   1.405       .  A
C1033      C1038   1.405       .  A
C1033      H1040   1.083       .  S
C1034      C1035   1.414       .  A
C1035      C1036   1.411       .  A
C1035      N1042   1.437       .  S
C1036      C1037   1.411       .  A
C1036      H1041   1.084       .  S
C1037      C1038   1.412       .  A
C1038      N1039   1.439       .  S
N1039      H1043   1.046       .  S
N1039      H1044   1.045       .  S
N1042      H1045   1.044       .  S
N1042      H1046   1.045       .  S
C1047      C1048   1.414       .  A
C1047      C1052   1.406       .  A
C1047      H1054   1.083   1_455  S
C1048      C1049   1.413       .  A
C1049      C1050   1.412       .  A
C1050      C1051   1.408       .  A
C1050      H1055   1.084       .  S
C1051      C1052   1.413       .  A
C1052      N1053   1.439       .  S
N1053      H1057   1.046       .  S
N1053      H1058   1.043       .  S
N1056      H1059   1.045       .  S
N1056      H1060   1.046       .  S
C1061      C1062   1.407       .  A
C1061      C1066   1.413       .  A
C1061      H1068   1.084       .  S
C1062      C1063   1.406       .  A
C1063      C1064   1.407       .  A
C1063      N1070   1.439       .  S
C1064      C1065   1.415   1_545  A
C1064      H1069   1.083   1_545  S
C1065      C1066   1.415   1_565  A
C1066      N1067   1.437       .  S
N1067      H1071   1.046       .  S
N1067      H1072   1.046   1_545  S
N1070      H1073   1.045       .  S
N1070      H1074   1.046       .  S
C1075      C1076   1.413       .  A
C1075      C1080   1.411   1_455  A
C1075      H1082   1.084       .  S
C1076      C1077   1.426   1_455  A
C1077      C1078   1.400       .  A
C1077      N1084   1.442       .  S
C1078      C1079   1.399       .  A
C1078      H1083   1.085       .  S
C1079      C1080   1.404       .  A
C1080      N1081   1.437       .  S
N1081      H1085   1.046       .  S
N1081      H1086   1.046       .  S
N1084      H1087   1.037   1_655  S
N1084      H1088   1.046       .  S
C1089      C1090   1.406       .  A
C1089      C1094   1.403       .  A
C1089      H1096   1.084       .  S
C1090      C1091   1.412       .  A
C1091      C1092   1.404       .  A
C1091      N1098   1.438       .  S
C1092      C1093   1.407       .  A
C1092      H1097   1.084       .  S
C1093      C1094   1.412       .  A
C1094      N1095   1.438       .  S
N1095      H1099   1.046       .  S
N1095      H1100   1.044       .  S
N1098      H1101   1.044       .  S
N1098      H1102   1.046       .  S
C1103      C1104   1.399       .  A
C1103      H1110   1.086       .  S
C1105      C1106   1.416       .  A
C1105      N1112   1.436       .  S
C1106      C1107   1.405   1_545  A
C1106      H1111   1.083       .  S
C1107      C1108   1.408       .  A
C1108      N1109   1.437       .  S
N1109      H1114   1.046       .  S
N1112      H1116   1.045       .  S
C1117      C1118   1.407       .  A
C1117      C1122   1.417       .  A
C1117      H1124   1.083       .  S
C1118      C1119   1.414       .  A
C1119      C1120   1.395       .  A
C1119      N1126   1.433       .  S
C1120      C1121   1.398       .  A
C1120      H1125   1.085       .  S
C1121      C1122   1.413       .  A
C1122      N1123   1.436       .  S
N1123      H1127   1.046       .  S
N1123      H1128   1.045       .  S
N1126      H1130   1.046       .  S
C1131      C1132   1.406       .  A
C1131      C1136   1.400       .  A
C1131      H1138   1.084       .  S
C1132      C1133   1.414       .  A
C1133      C1134   1.404       .  A
C1133      N1140   1.438       .  S
C1134      C1135   1.404       .  A
C1134      H1139   1.084       .  S
C1135      C1136   1.410       .  A
C1136      N1137   1.439       .  S
N1137      H1141   1.046       .  S
N1137      H1142   1.046       .  S
N1140      H1143   1.046       .  S
N1140      H1144   1.046       .  S
C1145      C1146   1.403       .  A
C1145      C1150   1.395       .  A
C1145      H1152   1.083       .  S
C1146      C1147   1.416       .  A
C1147      C1148   1.414       .  A
C1147      N1154   1.437       .  S
C1148      C1149   1.412       .  A
C1148      H1153   1.084       .  S
C1149      C1150   1.408       .  A
N1151      H1155   1.045       .  S
N1151      H1156   1.046   1_556  S
N1154      H1157   1.043       .  S
N1154      H1158   1.045       .  S
C1159      C1160   1.401       .  A
C1159      C1164   1.393       .  A
C1159      H1166   1.082       .  S
C1160      C1161   1.405       .  A
C1161      C1162   1.401   1_455  A
C1161      N1168   1.437   1_455  S
C1162      C1163   1.404       .  A
C1162      H1167   1.084       .  S
C1163      C1164   1.409   1_655  A
C1164      N1165   1.438       .  S
N1165      H1169   1.046       .  S
N1165      H1170   1.044       .  S
N1168      H1171   1.046       .  S
N1168      H1172   1.045       .  S
C1173      C1174   1.405       .  A
C1173      C1178   1.411       .  A
C1173      H1180   1.082       .  S
C1174      C1175   1.415       .  A
C1175      C1176   1.408       .  A
C1175      N1182   1.438       .  S
C1176      C1177   1.406       .  A
C1176      H1181   1.083       .  S
C1177      C1178   1.409       .  A
C1178      N1179   1.437       .  S
N1179      H1183   1.046       .  S
N1179      H1184   1.046       .  S
N1182      H1185   1.043       .  S
N1182      H1186   1.045       .  S
C1187      C1188   1.396       .  A
C1187      C1192   1.391       .  A
C1187      H1194   1.085       .  S
C1188      C1189   1.410       .  A
C1189      C1190   1.409       .  A
C1189      N1196   1.438       .  S
C1190      C1191   1.407       .  A
C1190      H1195   1.084   1_556  S
C1191      C1192   1.419       .  A
C1192      N1193   1.430       .  S
N1193      H1197   1.043       .  S
N1193      H1198   1.045       .  S
N1196      H1199   1.045       .  S
N1196      H1200   1.046       .  S
C1201      C1202   1.397       .  A
C1201      C1206   1.396       .  A
C1201      H1208   1.084       .  S
C1202      C1203   1.412       .  A
C1203      C1204   1.400       .  A
C1203      N1210   1.438       .  S
C1204      C1205   1.398       .  A
C1204      H1209   1.084       .  S
C1205      C1206   1.418       .  A
C1206      N1207   1.437       .  S
N1207      H1211   1.046       .  S
N1207      H1212   1.045       .  S
N1210      H1213   1.045       .  S
N1210      H1214   1.046       .  S
C1215      C1216   1.409       .  A
C1215      C1220   1.418       .  A
C1215      H1222   1.083       .  S
C1216      C1217   1.419       .  A
C1217      C1218   1.389       .  A
C1217      N1224   1.435       .  S
C1218      C1219   1.397       .  A
C1218      H1223   1.085       .  S
C1219      C1220   1.414       .  A
C1220      N1221   1.436       .  S
N1221      H1225   1.046       .  S
N1221      H1226   1.045       .  S
N1224      H1227   1.046       .  S
N1224      H1228   1.045       .  S
C1229      C1230   1.402       .  A
C1229      C1234   1.402       .  A
C1229      H1236   1.083       .  S
C1230      C1231   1.418       .  A
C1231      C1232   1.399       .  A
C1231      N1238   1.439       .  S
C1232      C1233   1.403       .  A
C1232      H1237   1.083       .  S
C1233      C1234   1.419       .  A
C1234      N1235   1.439       .  S
N1235      H1239   1.046       .  S
N1235      H1240   1.046       .  S
N1238      H1241   1.046       .  S
N1238      H1242   1.046       .  S
C1243      C1244   1.409   1_455  A
C1243      C1248   1.415       .  A
C1243      H1250   1.083       .  S
C1244      C1245   1.425   1_655  A
C1245      C1246   1.406       .  A
C1245      N1252   1.439   1_455  S
C1246      C1247   1.399       .  A
C1246      H1251   1.084       .  S
C1247      C1248   1.415       .  A
C1248      N1249   1.438       .  S
N1249      H1253   1.046       .  S
N1249      H1254   1.045       .  S
N1252      H1255   1.045       .  S
N1252      H1256   1.046   1_655  S
C1257      C1258   1.415       .  A
C1257      C1262   1.421       .  A
C1257      H1264   1.083       .  S
C1258      C1259   1.423       .  A
C1259      C1260   1.395       .  A
C1259      N1266   1.440       .  S
C1260      C1261   1.396       .  A
C1260      H1265   1.085       .  S
C1261      C1262   1.408       .  A
C1262      N1263   1.436       .  S
N1263      H1267   1.046       .  S
N1263      H1268   1.046       .  S
N1266      H1269   1.046       .  S
N1266      H1270   1.046       .  S
C1271      C1272   1.404       .  A
C1271      C1276   1.416       .  A
C1271      H1278   1.083       .  S
C1272      C1273   1.415       .  A
C1273      C1274   1.396       .  A
C1273      N1280   1.440       .  S
C1274      C1275   1.404       .  A
C1274      H1279   1.083       .  S
C1275      C1276   1.418       .  A
C1276      N1277   1.436       .  S
N1277      H1281   1.046       .  S
N1277      H1282   1.045       .  S
N1280      H1283   1.045       .  S
N1280      H1284   1.046       .  S
C1285      C1286   1.406       .  A
C1285      C1290   1.412       .  A
C1285      H1292   1.084       .  S
C1286      C1287   1.403       .  A
C1287      C1288   1.401       .  A
C1287      N1294   1.432       .  S
C1288      C1289   1.411   1_565  A
C1288      H1293   1.084   1_565  S
C1289      C1290   1.416   1_545  A
C1290      N1291   1.437       .  S
N1291      H1295   1.046       .  S
N1291      H1296   1.045   1_565  S
N1294      H1297   1.046       .  S
N1294      H1298   1.046       .  S
C1299      C1300   1.407       .  A
C1299      C1304   1.413       .  A
C1299      H1306   1.083       .  S
C1300      C1301   1.425       .  A
C1301      C1302   1.409   1_556  A
C1302      C1303   1.398   1_554  A
C1303      C1304   1.415       .  A
C1304      N1305   1.438       .  S
N1305      H1309   1.046       .  S
N1305      H1310   1.044       .  S
N1308      H1312   1.046       .  S
C1313      C1314   1.407       .  A
C1313      C1318   1.408       .  A
C1313      H1320   1.084       .  S
C1314      C1315   1.413       .  A
C1315      C1316   1.402       .  A
C1315      N1322   1.439       .  S
C1316      C1317   1.404       .  A
C1316      H1321   1.084       .  S
C1317      C1318   1.406       .  A
C1318      N1319   1.437       .  S
N1319      H1323   1.046       .  S
N1319      H1324   1.045       .  S
N1322      H1325   1.044       .  S
N1322      H1326   1.046       .  S
C1327      C1328   1.403       .  A
C1327      C1332   1.410   1_565  A
C1327      H1334   1.084       .  S
C1328      C1329   1.398   1_565  A
C1329      C1330   1.388       .  A
C1329      N1336   1.434       .  S
C1330      C1331   1.407       .  A
C1330      H1335   1.082       .  S
C1331      C1332   1.411       .  A
C1332      N1333   1.436   1_545  S
N1333      H1337   1.046       .  S
N1333      H1338   1.046   1_565  S
N1336      H1339   1.046       .  S
N1336      H1340   1.043       .  S
C1341      C1342   1.406       .  A
C1341      C1346   1.407       .  A
C1341      H1348   1.084       .  S
C1342      C1343   1.414       .  A
C1343      C1344   1.401       .  A
C1343      N1350   1.439       .  S
C1344      C1345   1.404       .  A
C1344      H1349   1.085       .  S
C1345      C1346   1.416       .  A
C1346      N1347   1.438       .  S
N1347      H1351   1.046       .  S
N1347      H1352   1.043       .  S
N1350      H1353   1.044       .  S
N1350      H1354   1.046       .  S
C1355      C1356   1.399       .  A
C1355      C1360   1.394       .  A
C1355      H1362   1.084       .  S
C1356      C1357   1.413       .  A
C1357      C1358   1.399       .  A
C1357      N1364   1.437       .  S
C1358      C1359   1.403       .  A
C1358      H1363   1.084       .  S
C1359      C1360   1.420       .  A
C1360      N1361   1.432       .  S
N1361      H1365   1.044       .  S
N1361      H1366   1.045       .  S
N1364      H1367   1.045       .  S
N1364      H1368   1.046       .  S
C1369      C1370   1.405   1_545  A
C1369      C1374   1.406       .  A
C1369      H1376   1.084       .  S
C1370      C1371   1.418   1_565  A
C1371      C1372   1.408       .  A
C1371      N1378   1.435   1_545  S
C1372      C1373   1.399       .  A
C1372      H1377   1.084       .  S
C1373      C1374   1.420       .  A
C1374      N1375   1.439       .  S
N1375      H1379   1.046       .  S
N1375      H1380   1.041       .  S
N1378      H1381   1.045       .  S
N1378      H1382   1.046       .  S
C1383      C1384   1.412       .  A
C1383      C1388   1.417       .  A
C1383      H1390   1.083       .  S
C1384      C1385   1.416       .  A
C1385      C1386   1.399       .  A
C1385      N1392   1.439       .  S
C1386      C1387   1.401       .  A
C1386      H1391   1.084       .  S
C1387      C1388   1.409       .  A
C1388      N1389   1.436       .  S
N1389      H1393   1.046       .  S
N1389      H1394   1.045       .  S
N1392      H1395   1.045       .  S
N1392      H1396   1.046       .  S
C1397      C1398   1.402       .  A
C1397      C1402   1.394       .  A
C1397      H1404   1.084       .  S
C1398      C1399   1.412       .  A
C1399      C1400   1.400       .  A
C1399      N1406   1.439       .  S
C1400      C1401   1.406       .  A
C1400      H1405   1.083       .  S
C1401      C1402   1.419       .  A
C1402      N1403   1.433       .  S
N1403      H1407   1.045       .  S
N1403      H1408   1.046       .  S
N1406      H1409   1.045       .  S
N1406      H1410   1.046       .  S
C1411      C1412   1.406       .  A
C1411      C1416   1.412       .  A
C1411      H1418   1.084       .  S
C1412      C1413   1.414       .  A
C1413      C1414   1.396       .  A
C1413      N1420   1.433       .  S
C1414      C1415   1.395       .  A
C1414      H1419   1.085       .  S
C1415      C1416   1.420       .  A
C1416      N1417   1.438       .  S
N1417      H1421   1.045       .  S
N1417      H1422   1.043       .  S
N1420      H1423   1.045       .  S
N1420      H1424   1.046       .  S
C1425      C1426   1.407       .  A
C1425      C1430   1.419       .  A
C1425      H1432   1.083       .  S
C1426      C1427   1.401       .  A
C1427      C1428   1.370       .  A
C1427      N1434   1.435       .  S
C1428      C1429   1.403       .  A
C1428      H1433   1.085       .  S
C1429      C1430   1.413       .  A
C1430      N1431   1.435       .  S
N1431      H1435   1.046       .  S
N1431      H1436   1.046       .  S
N1434      H1437   1.046       .  S
N1434      H1438   1.046       .  S
C1439      C1440   1.398       .  A
C1439      C1444   1.395       .  A
C1439      H1446   1.085       .  S
C1440      C1441   1.419       .  A
C1441      C1442   1.416       .  A
C1441      N1448   1.437       .  S
C1442      C1443   1.408       .  A
C1442      H1447   1.084       .  S
C1443      C1444   1.419       .  A
C1444      N1445   1.438       .  S
N1445      H1449   1.046       .  S
N1445      H1450   1.038       .  S
N1448      H1451   1.044       .  S
N1448      H1452   1.045       .  S
C1453      C1454   1.406       .  A
C1453      C1458   1.395       .  A
C1453      H1460   1.083       .  S
C1454      C1455   1.418       .  A
C1455      C1456   1.418       .  A
C1455      N1462   1.437       .  S
C1456      C1457   1.406       .  A
C1456      H1461   1.083       .  S
C1457      C1458   1.415       .  A
C1458      N1459   1.440       .  S
N1459      H1463   1.046       .  S
N1459      H1464   1.043       .  S
N1462      H1465   1.046       .  S
N1462      H1466   1.046       .  S
C1467      C1468   1.394       .  A
C1467      C1472   1.377   1_455  A
C1467      H1474   1.086       .  S
C1468      C1469   1.418       .  A
C1469      C1470   1.415       .  A
C1469      N1476   1.436       .  S
C1470      C1471   1.406   1_455  A
C1470      H1475   1.083   1_455  S
C1471      C1472   1.411       .  A
C1472      N1473   1.437       .  S
N1473      H1477   1.046       .  S
N1473      H1478   1.046       .  S
N1476      H1479   1.044       .  S
N1476      H1480   1.045       .  S
C1481      C1482   1.411       .  A
C1481      C1486   1.418       .  A
C1481      H1488   1.083       .  S
C1482      C1483   1.405       .  A
C1483      C1484   1.401       .  A
C1483      N1490   1.433       .  S
C1484      C1485   1.414   1_565  A
C1484      H1489   1.083   1_565  S
C1485      C1486   1.416   1_545  A
C1486      N1487   1.436   1_565  S
N1487      H1491   1.046   1_545  S
N1487      H1492   1.046       .  S
N1490      H1493   1.046       .  S
N1490      H1494   1.045       .  S
C1495      C1496   1.405       .  A
C1495      C1500   1.409       .  A
C1495      H1502   1.084       .  S
C1496      C1497   1.410       .  A
C1497      C1498   1.404   1_655  A
C1497      N1504   1.438       .  S
C1498      C1499   1.413       .  A
C1498      H1503   1.084       .  S
C1499      C1500   1.414   1_455  A
C1500      N1501   1.437       .  S
N1501      H1505   1.046       .  S
N1501      H1506   1.045   1_655  S
N1504      H1507   1.044       .  S
N1504      H1508   1.045       .  S
C1509      C1510   1.394       .  A
C1509      C1514   1.400       .  A
C1509      H1516   1.084       .  S
C1510      C1511   1.414       .  A
C1511      C1512   1.413       .  A
C1511      N1518   1.437       .  S
C1512      C1513   1.402       .  A
C1512      H1517   1.084       .  S
C1513      C1514   1.414       .  A
C1514      N1515   1.434       .  S
N1515      H1519   1.046       .  S
N1518      H1521   1.043       .  S
N1518      H1522   1.046       .  S
C1523      C1524   1.401       .  A
C1523      C1528   1.401       .  A
C1523      H1530   1.084       .  S
C1524      C1525   1.415       .  A
C1525      C1526   1.403       .  A
C1525      N1532   1.439       .  S
C1526      C1527   1.405       .  A
C1526      H1531   1.083       .  S
C1527      C1528   1.420       .  A
C1528      N1529   1.439       .  S
N1529      H1533   1.046       .  S
N1529      H1534   1.046       .  S
N1532      H1535   1.045       .  S
N1532      H1536   1.046       .  S
