geometry optimzed in LAMMPS
_audit_creation_date              2020-12-01 
_audit_creation_method            'lammps2cif' 
_symmetry_space_group_name_H-M    'P1' 
_symmetry_Int_Tables_number       1 
_symmetry_cell_setting            triclinic 
loop_ 
_symmetry_equiv_pos_as_xyz 
  x,y,z 
_cell_length_a                    45.61141719 
_cell_length_b                    45.80374132927154 
_cell_length_c                    37.486171974171526 
_cell_angle_alpha                 90.06585132578174 
_cell_angle_beta                  89.92024490851729 
_cell_angle_gamma                 120.13111601164779 
loop_ 
_atom_site_label 
_atom_site_type_symbol 
_atom_site_fract_x 
_atom_site_fract_y 
_atom_site_fract_z 
_atom_site_charge 
O1          O  0.59119570  0.59953317  0.13894045    -0.83600
C2          C  0.52214850  0.45848095  0.11903484     0.95800
O3          O  0.50826844  0.47640422  0.12111663    -0.72700
O4          O  0.53280605  0.50913585  0.18123381    -0.76300
Al5        Al  0.52785062  0.52300248  0.13526540     1.49000
C6          C  0.55394852  0.52881689  0.20390523     0.91000
O7          O  0.61994257  0.53783095  0.16188019    -0.82500
O8          O  0.60375516  0.55525124  0.06302594    -0.76100
Al9        Al  0.60409065  0.56694371  0.14882137     1.90100
O10         O  0.61917617  0.51794144  0.10866453    -0.75100
O11         O  0.54003227  0.50842086  0.05985584    -0.75000
O12         O  0.55312863  0.47171439  0.11106686    -0.80600
O13         O  0.51946323  0.53559998  0.08973326    -0.78800
O14         O  0.57014526  0.53513852  0.12397208    -1.15000
O15         O  0.53788702  0.56668423  0.15330338    -0.74200
C16         C  0.56397870  0.59581682  0.15174650     0.96500
C17         C  0.63173725  0.52584338  0.13974331     0.92900
Al18       Al  0.57818070  0.51462111  0.08843007     1.55600
O19         O  0.58070679  0.55524552  0.19417898    -0.78800
C20         C  0.52260844  0.52308936  0.06087135     0.97100
C21         C  0.63008988  0.58022783  0.07529962     0.92000
O22         O  0.63473730  0.58494598  0.10864793    -0.84100
O23         O  0.46070165  0.51934914  0.31538739    -0.83600
C24         C  0.36075142  0.44334456  0.41559717     0.95800
O25         O  0.38850886  0.44349734  0.41361344    -0.72700
O26         O  0.39253447  0.42748391  0.34801562    -0.76300
Al27       Al  0.42307672  0.46347216  0.37721751     1.49000
C28         C  0.39476108  0.42864930  0.31460778     0.91000
O29         O  0.36622742  0.48044489  0.30960982    -0.82500
O30         O  0.42661814  0.55488742  0.37501872    -0.76100
Al31       Al  0.41326661  0.49961941  0.31394443     1.90100
O32         O  0.36018197  0.50801340  0.35448288    -0.75100
O33         O  0.42236602  0.51487616  0.42978597    -0.75000
O34         O  0.35833836  0.46781459  0.40407835    -0.80600
O35         O  0.45452167  0.49618719  0.40800300    -0.78800
O36         O  0.41001268  0.49121460  0.36020330    -1.15000
O37         O  0.46047541  0.47726001  0.34388738    -0.74200
C38         C  0.47485505  0.50261721  0.32327893     0.96500
C39         C  0.34849103  0.48971666  0.32673435     0.92900
Al40       Al  0.39331265  0.51010363  0.38885605     1.55600
O41         O  0.40716578  0.45662558  0.29850954    -0.78800
C42         C  0.44800088  0.51095473  0.43235707     0.97100
C43         C  0.43070099  0.56526821  0.34313424     0.92000
O44         O  0.42018562  0.54437943  0.31766206    -0.84100
O45         O  0.63780221  0.74470978  0.30437156    -0.83600
C46         C  0.56405557  0.81158497  0.28602189     0.95800
O47         O  0.59600672  0.82561583  0.28717286    -0.72700
O48         O  0.60437501  0.80160367  0.34726609    -0.76300
Al49       Al  0.62340088  0.80667915  0.30134092     1.49000
C50         C  0.60355269  0.78103251  0.37016106     0.91000
O51         O  0.54700610  0.71416138  0.32882407    -0.82500
O52         O  0.57955453  0.73013552  0.22930903    -0.76100
Al53       Al  0.59217030  0.73091645  0.31511714     1.90100
O54         O  0.52714649  0.71494343  0.27598888    -0.75100
O55         O  0.59644947  0.79391728  0.22598892    -0.75000
O56         O  0.54636835  0.78071629  0.27799261    -0.80600
O57         O  0.64448739  0.81521178  0.25578553    -0.78800
O58         O  0.59348373  0.76431756  0.29026286    -1.15000
O59         O  0.65750873  0.79743991  0.31951877    -0.74200
C60         C  0.66084506  0.77165196  0.31790533     0.96500
C61         C  0.52293543  0.70227858  0.30698395     0.92900
Al62       Al  0.56451532  0.75581407  0.25504885     1.55600
O63         O  0.60386507  0.75460344  0.36060392    -0.78800
C64         C  0.62868655  0.81194101  0.22698149     0.97100
C65         C  0.57869445  0.70412343  0.24162431     0.92000
O66         O  0.57959286  0.70009755  0.27502030    -0.84100
O67         O  0.68767818  0.87649635  0.48026740    -0.83600
C68         C  0.71190295  0.97420048  0.08321203     0.95800
O69         O  0.68424497  0.94644522  0.08115614    -0.72700
O70         O  0.66338345  0.94306459  0.01604924    -0.76300
Al71       Al  0.66945234  0.91243589  0.04409323     1.49000
C72         C  0.66237828  0.94174622  0.48262949     0.91000
O73         O  0.74362951  0.97065097  0.47683300    -0.82500
O74         O  0.75745594  0.90927170  0.04035071    -0.76100
Al75       Al  0.71554320  0.92374773  0.48015136     1.90100
O76         O  0.77754951  0.97571243  0.02096367    -0.75100
O77         O  0.72187973  0.91307220  0.09606284    -0.75000
O78         O  0.73888967  0.97694542  0.07107497    -0.80600
O79         O  0.67118056  0.88070850  0.07390277    -0.78800
O80         O  0.71040629  0.92605273  0.02658328    -1.15000
O81         O  0.64572722  0.87563765  0.01011002    -0.74200
C82         C  0.65675420  0.86191295  0.48864687     0.96500
C83         C  0.77088421  0.98793150  0.99375572     0.92900
Al84       Al  0.74620673  0.94232664  0.05509670     1.55600
O85         O  0.67851998  0.93032006  0.46573203    -0.78800
C86         C  0.69228141  0.88737631  0.09852938     0.97100
C87         C  0.76360535  0.90547656  0.00828186     0.92000
O88         O  0.75341542  0.91648495  0.48317780    -0.84100
O89         O  0.97401842  0.41379959  0.13883487    -0.83600
C90         C  0.89719998  0.47765504  0.12035989     0.95800
O91         O  0.92914570  0.49198979  0.12188898    -0.72700
O92         O  0.93834779  0.46871507  0.18220666    -0.76300
Al93       Al  0.95733703  0.47408659  0.13617624     1.49000
C94         C  0.93838957  0.44851342  0.20506065     0.91000
O95         O  0.88288792  0.38052172  0.16406301    -0.82500
O96         O  0.91467752  0.39712094  0.06458714    -0.76100
Al97       Al  0.92816598  0.39867911  0.15007299     1.90100
O98         O  0.86208107  0.38090738  0.11162319    -0.75100
O99         O  0.93028066  0.46027563  0.06072687    -0.75000
O100        O  0.87989810  0.44662216  0.11277448    -0.80600
O101        O  0.97830587  0.48268321  0.09066312    -0.78800
O102        O  0.92813798  0.43146459  0.12530150    -1.15000
O103        O  0.99237211  0.46623727  0.15418579    -0.74200
C104        C  0.99684208  0.44120128  0.15176000     0.96500
C105        C  0.85849268  0.36824955  0.14258465     0.92900
Al106      Al  0.89886823  0.42213804  0.09018481     1.55600
O107        O  0.93952792  0.42252396  0.19542969    -0.78800
C108        C  0.96249733  0.47866573  0.06172497     0.97100
C109        C  0.91499329  0.37172045  0.07688723     0.92000
O110        O  0.91622746  0.36785818  0.11023034    -0.84100
O111        O  0.02178449  0.54372289  0.31549236    -0.83600
C112        C  0.04545241  0.64142481  0.41808910     0.95800
O113        O  0.01761423  0.61389623  0.41567316    -0.72700
O114        O  0.99653770  0.60987094  0.35050446    -0.76300
Al115      Al  0.00292634  0.57956945  0.37905116     1.49000
C116        C  0.99517569  0.60787467  0.31709410     0.91000
O117        O  0.07692448  0.63804131  0.31205656    -0.82500
O118        O  0.09117731  0.57629380  0.37502178    -0.76100
Al119      Al  0.04925361  0.59097278  0.31520538     1.90100
O120        O  0.11108467  0.64324482  0.35607065    -0.75100
O121        O  0.05565036  0.57973265  0.43086996    -0.75000
O122        O  0.07248276  0.64377397  0.40663821    -0.80600
O123        O  0.00451456  0.54807454  0.40941923    -0.78800
O124        O  0.04398077  0.59316737  0.36167186    -1.15000
O125        O  0.97954635  0.54246608  0.34535309    -0.74200
C126        C  0.99085692  0.52889824  0.32396482     0.96500
C127        C  0.10412455  0.65553668  0.32908253     0.92900
Al128      Al  0.07983779  0.60933343  0.39013575     1.55600
O129        O  0.01174133  0.59676903  0.30049803    -0.78800
C130        C  0.02594822  0.55425360  0.43354334     0.97100
C131        C  0.09735212  0.57252468  0.34295259     0.92000
O132        O  0.08759925  0.58415797  0.31795496    -0.84100
O133        O  0.73361262  0.69905692  0.47456809    -0.83600
C134        C  0.87439124  0.77003669  0.45189547     0.95800
O135        O  0.85617832  0.73820660  0.45302264    -0.72700
O136        O  0.82452878  0.72941480  0.01362363    -0.76300
Al137      Al  0.80972481  0.71129269  0.46777498     1.49000
C138        C  0.80579439  0.73144767  0.03709246     0.91000
O139        O  0.79690174  0.78969057  0.49617791    -0.82500
O140        O  0.77673736  0.75481894  0.39763140    -0.76100
Al141      Al  0.76696781  0.74440053  0.48372332     1.90100
O142        O  0.81523311  0.80772222  0.44228572    -0.75100
O143        O  0.82388372  0.73839151  0.39274539    -0.75000
O144        O  0.86144166  0.78796099  0.44405982    -0.80600
O145        O  0.79608730  0.69051507  0.42204379    -0.78800
O146        O  0.79793721  0.74175068  0.45769708    -1.15000
O147        O  0.76626320  0.67793230  0.48616031    -0.74200
C148        C  0.73725992  0.67519723  0.48582527     0.96500
C149        C  0.80803189  0.81292530  0.47343203     0.92900
Al150      Al  0.81806963  0.77012640  0.42196498     1.55600
O151        O  0.77953380  0.73258589  0.02841577    -0.78800
C152        C  0.80898092  0.70631620  0.39334268     0.97100
C153        C  0.75197682  0.75626963  0.41056853     0.92000
O154        O  0.74803218  0.75663723  0.44407587    -0.84100
O155        O  0.81648897  0.64724781  0.14764213    -0.83600
C156        C  0.88990156  0.62287146  0.25084417     0.95800
O157        O  0.89071395  0.65077436  0.24774758    -0.72700
O158        O  0.90796581  0.67053740  0.18203229    -0.76300
Al159      Al  0.87158278  0.66546282  0.21063351     1.49000
C160        C  0.90717221  0.67178240  0.14860620     0.91000
O161        O  0.85408879  0.59076124  0.14410701    -0.82500
O162        O  0.77900356  0.57811407  0.20777462    -0.76100
Al163      Al  0.83555940  0.61909838  0.14733876     1.90100
O164        O  0.82535733  0.55744832  0.18882540    -0.75100
O165        O  0.81841930  0.61406304  0.26295149    -0.75000
O166        O  0.86519454  0.59608436  0.23912203    -0.80600
O167        O  0.83873232  0.66487925  0.24082836    -0.78800
O168        O  0.84338216  0.62456971  0.19372745    -1.15000
O169        O  0.85861749  0.68909926  0.17657878    -0.74200
C170        C  0.83347432  0.67815721  0.15553226     0.96500
C171        C  0.84405069  0.56373775  0.16135886     0.92900
Al172      Al  0.82338357  0.58919051  0.22261227     1.55600
O173        O  0.87924658  0.65573156  0.13223474    -0.78800
C174        C  0.82318440  0.64388209  0.26521393     0.97100
C175        C  0.76893792  0.57137152  0.17582875     0.92000
O176        O  0.79018690  0.58151410  0.15060040    -0.84100
O177        O  0.79336727  0.18496178  0.14986648    -0.83600
C178        C  0.69521048  0.10931415  0.25180395     0.95800
O179        O  0.72285133  0.10927039  0.24911468    -0.72700
O180        O  0.72612853  0.09304195  0.18331057    -0.76300
Al181      Al  0.75702049  0.12924871  0.21220065     1.49000
C182        C  0.72787859  0.09414247  0.14987292     0.91000
O183        O  0.69893866  0.14609941  0.14647606    -0.82500
O184        O  0.76095489  0.22067005  0.21089466    -0.76100
Al185      Al  0.74599789  0.16524465  0.14957421     1.90100
O186        O  0.69403935  0.17443372  0.19135195    -0.75100
O187        O  0.75701472  0.18068264  0.26523672    -0.75000
O188        O  0.69274638  0.13388490  0.24063090    -0.80600
O189        O  0.78888628  0.16200782  0.24267673    -0.78800
O190        O  0.74363799  0.15695889  0.19578695    -1.15000
O191        O  0.79406478  0.14322537  0.17813155    -0.74200
C192        C  0.80795373  0.16858362  0.15742461     0.96500
C193        C  0.68179327  0.15590191  0.16387256     0.92900
Al194      Al  0.72756765  0.17608440  0.22499936     1.55600
O195        O  0.73960608  0.12209897  0.13381275    -0.78800
C196        C  0.78269997  0.17684219  0.26722884     0.97100
C197        C  0.76461549  0.23114869  0.17908190     0.92000
O198        O  0.75318828  0.21027270  0.15357862    -0.84100
O199        O  0.92755347  0.26792111  0.47284922    -0.83600
C200        C  0.85743862  0.12695241  0.45392499     0.95800
O201        O  0.84376375  0.14509632  0.45524980    -0.72700
O202        O  0.86775708  0.17781644  0.01529414    -0.76300
Al203      Al  0.86369528  0.19177190  0.46914993     1.49000
C204        C  0.88868796  0.19729676  0.03821513     0.91000
O205        O  0.95508804  0.20567318  0.49708105    -0.82500
O206        O  0.93994808  0.22269703  0.39772804    -0.76100
Al207      Al  0.93985797  0.23506255  0.48338568     1.90100
O208        O  0.95448328  0.18527985  0.44420566    -0.75100
O209        O  0.87617878  0.17641258  0.39428753    -0.75000
O210        O  0.88844590  0.13984453  0.44631926    -0.80600
O211        O  0.85610920  0.20444283  0.42341449    -0.78800
O212        O  0.90595951  0.20337160  0.45844254    -1.15000
O213        O  0.87409283  0.23559176  0.48686182    -0.74200
C214        C  0.90045190  0.26452975  0.48555417     0.96500
C215        C  0.96665133  0.19307262  0.47543754     0.92900
Al216      Al  0.91395225  0.18240060  0.42336164     1.55600
O217        O  0.91576011  0.22362272  0.02875704    -0.78800
C218        C  0.85902274  0.19136585  0.39487775     0.97100
C219        C  0.96629955  0.24776394  0.40980818     0.92000
O220        O  0.97093179  0.25271425  0.44318895    -0.84100
O221        O  0.06768147  0.36333197  0.30390635    -0.83600
C222        C  0.20936300  0.43700571  0.28561319     0.95800
O223        O  0.19133911  0.40521979  0.28692374    -0.72700
O224        O  0.15806424  0.39625299  0.34703858    -0.76300
Al225      Al  0.14465362  0.37798889  0.30078225     1.49000
C226        C  0.13781977  0.39682965  0.36966804     0.91000
O227        O  0.12803226  0.45424599  0.32863104    -0.82500
O228        O  0.11301614  0.42263655  0.22920408    -0.76100
Al229      Al  0.09976027  0.40904065  0.31467441     1.90100
O230        O  0.14966554  0.47429888  0.27611627    -0.75100
O231        O  0.15963697  0.40561102  0.22579947    -0.75000
O232        O  0.19617433  0.45476847  0.27822417    -0.80600
O233        O  0.13228533  0.35757634  0.25516001    -0.78800
O234        O  0.13231798  0.40797416  0.29001470    -1.15000
O235        O  0.10118708  0.34391923  0.31825245    -0.74200
C236        C  0.07183616  0.34023079  0.31670307     0.96500
C237        C  0.14044869  0.47831438  0.30682261     0.92900
Al238      Al  0.15333135  0.43715669  0.25511272     1.55600
O239        O  0.11135710  0.39708398  0.35989034    -0.78800
C240        C  0.14496029  0.37349857  0.22650611     0.97100
C241        C  0.08782832  0.42368292  0.24135919     0.92000
O242        O  0.08202579  0.42185035  0.27461670    -0.84100
O243        O  0.14776254  0.31214896  0.48094381    -0.83600
C244        C  0.22535956  0.29279189  0.08256881     0.95800
O245        O  0.22465462  0.31995670  0.08002256    -0.72700
O246        O  0.24047185  0.33904396  0.01412352    -0.76300
Al247      Al  0.20402749  0.33300943  0.04305762     1.49000
C248        C  0.23943099  0.33939042  0.48075928     0.91000
O249        O  0.18855211  0.25854211  0.47742754    -0.82500
O250        O  0.11368223  0.24412703  0.04245518    -0.76100
Al251      Al  0.16844084  0.28545184  0.48061702     1.90100
O252        O  0.16099952  0.22538452  0.02264848    -0.75100
O253        O  0.15354745  0.28127524  0.09650396    -0.75000
O254        O  0.20122526  0.26539022  0.07134154    -0.80600
O255        O  0.17079820  0.33126405  0.07347159    -0.78800
O256        O  0.17687196  0.29169434  0.02677199    -1.15000
O257        O  0.18938503  0.35501581  0.00910551    -0.74200
C258        C  0.16393656  0.34315671  0.48851805     0.96500
C259        C  0.17947415  0.23185185  0.99502709     0.92900
Al260      Al  0.15859295  0.25671098  0.05617907     1.55600
O261        O  0.21139777  0.32286052  0.46465229    -0.78800
C262        C  0.15674124  0.31046530  0.09838305     0.97100
C263        C  0.10299407  0.23665028  0.01078435     0.92000
O264        O  0.12371061  0.24679381  0.48498033    -0.84100
O265        O  0.25758217  0.93510697  0.30470731    -0.83600
C266        C  0.18977800  0.79433512  0.28539601     0.95800
O267        O  0.17585675  0.81224396  0.28563694    -0.72700
O268        O  0.19939518  0.84431703  0.34613610    -0.76300
Al269      Al  0.19519601  0.85860610  0.30025793     1.49000
C270        C  0.22002827  0.86381421  0.36928190     0.91000
O271        O  0.28786057  0.87493314  0.32902561    -0.82500
O272        O  0.27264527  0.89093481  0.22963779    -0.76100
Al273      Al  0.27115034  0.90313043  0.31520495     1.90100
O274        O  0.28698593  0.85371567  0.27651686    -0.75100
O275        O  0.20882543  0.84459479  0.22520435    -0.75000
O276        O  0.22086095  0.80749310  0.27787071    -0.80600
O277        O  0.18785917  0.87170452  0.25463978    -0.78800
O278        O  0.23780779  0.87104085  0.28994712    -1.15000
O279        O  0.20439752  0.90175308  0.31883398    -0.74200
C280        C  0.23029794  0.93096754  0.31774000     0.96500
C281        C  0.29945965  0.86220277  0.30759069     0.92900
Al282      Al  0.24645908  0.85046132  0.25501590     1.55600
O283        O  0.24682962  0.89060061  0.36019528    -0.78800
C284        C  0.19132922  0.85925917  0.22588504     0.97100
C285        C  0.29843760  0.91638621  0.24205949     0.92000
O286        O  0.30238856  0.92161191  0.27541525    -0.84100
O287        O  0.12565968  0.85305112  0.48084221    -0.83600
C288        C  0.02749034  0.77774602  0.08340872     0.95800
O289        O  0.05525177  0.77798895  0.08075079    -0.72700
O290        O  0.05812752  0.76136589  0.01495099    -0.76300
Al291      Al  0.08911516  0.79774256  0.04362214     1.49000
C292        C  0.06019361  0.76218827  0.48141226     0.91000
O293        O  0.03103369  0.81384847  0.47701213    -0.82500
O294        O  0.09187842  0.88890027  0.04131247    -0.76100
Al295      Al  0.07815898  0.83320367  0.48036292     1.90100
O296        O  0.02519285  0.84148128  0.02203764    -0.75100
O297        O  0.08919567  0.84963893  0.09606229    -0.75000
O298        O  0.02471015  0.80199829  0.07186904    -0.80600
O299        O  0.12111498  0.83082733  0.07384931    -0.78800
O300        O  0.07558653  0.82522290  0.02683658    -1.15000
O301        O  0.12590199  0.81134576  0.00957400    -0.74200
C302        C  0.13994670  0.83639263  0.48853276     0.96500
C303        C  0.01325285  0.82295476  0.99447003     0.92900
Al304      Al  0.05917063  0.84419689  0.05579618     1.55600
O305        O  0.07199238  0.79000366  0.46504336    -0.78800
C306        C  0.11497619  0.84588417  0.09820915     0.97100
C307        C  0.09547309  0.89909334  0.00940430     0.92000
O308        O  0.08504612  0.87808376  0.48390704    -0.84100
O309        O  0.40207717  0.03279925  0.13887512    -0.83600
C310        C  0.54344651  0.10496925  0.12043739     0.95800
O311        O  0.52499082  0.07319340  0.12138455    -0.72700
O312        O  0.49226672  0.06401877  0.18146090    -0.76300
Al313      Al  0.47848158  0.04611688  0.13509723     1.49000
C314        C  0.47244361  0.06492937  0.20435544     0.91000
O315        O  0.46375060  0.12296018  0.16357805    -0.82500
O316        O  0.44697285  0.09095937  0.06397643    -0.76100
Al317      Al  0.43465864  0.07805432  0.14970360     1.90100
O318        O  0.48408298  0.14276405  0.11064486    -0.75100
O319        O  0.49397487  0.07416716  0.06025089    -0.75000
O320        O  0.53073121  0.12312694  0.11264990    -0.80600
O321        O  0.46600121  0.02601441  0.08923459    -0.78800
O322        O  0.46667169  0.07647613  0.12464025    -1.15000
O323        O  0.43473669  0.01221405  0.15248206    -0.74200
C324        C  0.40562524  0.00917352  0.15109833     0.96500
C325        C  0.47537261  0.14682808  0.14158687     0.92900
Al326      Al  0.48765750  0.10562608  0.08963317     1.55600
O327        O  0.44616637  0.06568214  0.19485720    -0.78800
C328        C  0.47915130  0.04205496  0.06073487     0.97100
C329        C  0.42171295  0.09178419  0.07640923     0.92000
O330        O  0.41678337  0.09103146  0.10980479    -0.84100
O331        O  0.48265947  0.97961069  0.31531866    -0.83600
C332        C  0.55759173  0.95775863  0.41819528     0.95800
O333        O  0.55760069  0.98528155  0.41542506    -0.72700
O334        O  0.57455547  0.00404211  0.34956661    -0.76300
Al335      Al  0.53816434  0.99916091  0.37787620     1.49000
C336        C  0.57375840  0.00460048  0.31611403     0.91000
O337        O  0.52103249  0.92403441  0.31232990    -0.82500
O338        O  0.44624503  0.91133274  0.37659732    -0.76100
Al339      Al  0.50215945  0.95193058  0.31531377     1.90100
O340        O  0.49288454  0.89098453  0.35739479    -0.75100
O341        O  0.48638057  0.94829579  0.43103332    -0.75000
O342        O  0.53317824  0.93064601  0.40670962    -0.80600
O343        O  0.50509285  0.99845162  0.40769932    -0.78800
O344        O  0.51028229  0.95799241  0.36154240    -1.15000
O345        O  0.52484855  0.02215477  0.34330977    -0.74200
C346        C  0.49936839  0.01062990  0.32266469     0.96500
C347        C  0.51140029  0.89722761  0.32977789     0.92900
Al348      Al  0.49096383  0.92297900  0.39089588     1.55600
O349        O  0.54577710  0.98858312  0.29977790    -0.78800
C350        C  0.49060998  0.97795146  0.43275960     0.97100
C351        C  0.43587796  0.90441010  0.34474613     0.92000
O352        O  0.45691219  0.91415778  0.31929841    -0.84100
O353        O  0.35137236  0.20818158  0.14869684    -0.83600
C354        C  0.37700463  0.30786120  0.24929123     0.95800
O355        O  0.34911662  0.28036310  0.24752194    -0.72700
O356        O  0.32838064  0.27620208  0.18227063    -0.76300
Al357      Al  0.33390412  0.24576018  0.21129151     1.49000
C358        C  0.32766521  0.27466384  0.14881420     0.91000
O359        O  0.40820549  0.30212157  0.14293229    -0.82500
O360        O  0.42158751  0.24151686  0.20811805    -0.76100
Al361      Al  0.37970280  0.25532537  0.14739028     1.90100
O362        O  0.44201992  0.30783122  0.18744346    -0.75100
O363        O  0.38641203  0.24648347  0.26328836    -0.75000
O364        O  0.40379352  0.31004366  0.23734404    -0.80600
O365        O  0.33510728  0.21429281  0.24228131    -0.78800
O366        O  0.37475656  0.25856136  0.19375265    -1.15000
O367        O  0.30975335  0.20853937  0.17808070    -0.74200
C368        C  0.32047713  0.19418470  0.15709874     0.96500
C369        C  0.43548579  0.31960034  0.15976663     0.92900
Al370      Al  0.41066729  0.27502654  0.22205301     1.55600
O371        O  0.34312487  0.26222599  0.13244770    -0.78800
C372        C  0.35674485  0.22103970  0.26639362     0.97100
C373        C  0.42768380  0.23719406  0.17621739     0.92000
O374        O  0.41727560  0.24764783  0.15074282    -0.84100
O375        O  0.30338317  0.07689452  0.47439817    -0.83600
C376        C  0.23172700  0.14576754  0.45355583     0.95800
O377        O  0.26361106  0.15946600  0.45485938    -0.72700
O378        O  0.27129729  0.13546713  0.01513475    -0.76300
Al379      Al  0.29029614  0.13993938  0.46936943     1.49000
C380        C  0.26916631  0.11449897  0.03826602     0.91000
O381        O  0.21212687  0.04769690  0.49680320    -0.82500
O382        O  0.24587329  0.06339687  0.39794805    -0.76100
Al383      Al  0.25758732  0.06394005  0.48389814     1.90100
O384        O  0.19332817  0.04900559  0.44360715    -0.75100
O385        O  0.26341693  0.12717040  0.39398624    -0.75000
O386        O  0.21365840  0.11490977  0.44569231    -0.80600
O387        O  0.31141527  0.14805300  0.42375755    -0.78800
O388        O  0.25988682  0.09762850  0.45855847    -1.15000
O389        O  0.32381516  0.13017711  0.48774181    -0.74200
C390        C  0.32690724  0.10425510  0.48674191     0.96500
C391        C  0.18840529  0.03618666  0.47452595     0.92900
Al392      Al  0.23121332  0.08947781  0.42309996     1.55600
O393        O  0.26874923  0.08762341  0.02916942    -0.78800
C394        C  0.29561576  0.14501638  0.39499121     0.97100
C395        C  0.24470572  0.03728884  0.41039333     0.92000
O396        O  0.24522687  0.03311587  0.44382052    -0.84100
C397        C  0.31628229  0.16752810  0.29754912    -0.15100
C398        C  0.34541754  0.19979898  0.29912341     0.07000
C399        C  0.35988671  0.21279455  0.33268277    -0.15100
C400        C  0.34455879  0.19447682  0.36401223    -0.15100
C401        C  0.31435857  0.16302186  0.36227015     0.07000
C402        C  0.30091178  0.14949457  0.32866217    -0.15100
H403        H  0.30452408  0.15670442  0.27217085     0.11000
H404        H  0.38199745  0.23778476  0.33483035     0.11000
H405        H  0.35539031  0.20555992  0.38961469     0.11000
H406        H  0.27793752  0.12514414  0.32645621     0.11000
C407        C  0.27084297  0.16408347  0.11800708    -0.15100
C408        C  0.29688472  0.16367644  0.13740861     0.07000
C409        C  0.30655713  0.13984274  0.12886580    -0.15100
C410        C  0.29342466  0.11964646  0.09854067    -0.15100
C411        C  0.27140841  0.12401345  0.07600537     0.07000
C412        C  0.25850375  0.14467523  0.08707822    -0.15100
H413        H  0.26339406  0.18263007  0.12388992     0.11000
H414        H  0.32684864  0.13941900  0.14341684     0.11000
H415        H  0.30373468  0.10389597  0.09042923     0.11000
H416        H  0.24142174  0.14828476  0.07002363     0.11000
C417        C  0.46825547  0.18301910  0.18655880    -0.15100
C418        C  0.47289495  0.17692678  0.15075127     0.07000
C419        C  0.46668438  0.19433263  0.12377019    -0.15100
C420        C  0.45346305  0.21520636  0.13226998    -0.15100
C421        C  0.44639664  0.21928021  0.16793975     0.07000
C422        C  0.45521530  0.20403928  0.19508248    -0.15100
H423        H  0.47259599  0.16972581  0.20793119     0.11000
H424        H  0.46936906  0.18967765  0.09595625     0.11000
H425        H  0.44717937  0.22680242  0.11067611     0.11000
H426        H  0.45033845  0.20686154  0.22277773     0.11000
C427        C  0.36706000  0.08256770  0.99648381    -0.15100
C428        C  0.35490472  0.10422845  0.00607541     0.07000
C429        C  0.36582053  0.12246887  0.53827262    -0.15100
C430        C  0.38707761  0.11777323  0.06121245    -0.15100
C431        C  0.39892930  0.09588607  0.05191231     0.07000
C432        C  0.38960745  0.07901380  0.01895135    -0.15100
H433        H  0.35862399  0.06801167  0.97207071     0.11000
H434        H  0.35626312  0.13880586  0.54664077     0.11000
H435        H  0.39439938  0.13140245  0.08626881     0.11000
H436        H  0.39878394  0.06219890  0.01125299     0.11000
C437        C  0.48375436  0.03942388  0.49466119    -0.15100
C438        C  0.47812902  0.02350864  0.02782354     0.07000
C439        C  0.47258644  0.99034523  0.02911155    -0.15100
C440        C  0.47464372  0.97428270  0.49801424    -0.15100
C441        C  0.48175625  0.99096659  0.46497656     0.07000
C442        C  0.48526609  0.02333520  0.46368376    -0.15100
H443        H  0.48756683  0.06470442  0.49263457     0.11000
H444        H  0.46805885  0.97735590  0.05438667     0.11000
H445        H  0.47210002  0.94951817  0.50000096     0.11000
H446        H  0.49059594  0.03699439  0.43874470     0.11000
C447        C  0.45119286  0.03560172  0.26197849    -0.15100
C448        C  0.47812354  0.06054631  0.24200795     0.07000
C449        C  0.51134184  0.07479612  0.25510012    -0.15100
C450        C  0.51793220  0.06156692  0.28562538    -0.15100
C451        C  0.49145448  0.03328068  0.30251417     0.07000
C452        C  0.45786451  0.02168634  0.29183252    -0.15100
H453        H  0.42541160  0.02411624  0.25216598     0.11000
H454        H  0.53242725  0.09402546  0.23992761     0.11000
H455        H  0.54403538  0.07063873  0.29317551     0.11000
H456        H  0.43710835  0.99973853  0.30442013     0.11000
C457        C  0.12741854  0.96010485  0.02795969    -0.15100
C458        C  0.11308396  0.93568384  0.00090465     0.07000
C459        C  0.11853988  0.94652673  0.46497301    -0.15100
C460        C  0.14011543  0.98048438  0.45636589    -0.15100
C461        C  0.15713738  0.00429944  0.48337654     0.07000
C462        C  0.14945398  0.99409365  0.51920976    -0.15100
H463        H  0.12352319  0.95273170  0.05575149     0.11000
H464        H  0.10757801  0.92842843  0.44340811     0.11000
H465        H  0.14584861  0.98746512  0.42857324     0.11000
H466        H  0.16227928  0.01197664  0.54060271     0.11000
C467        C  0.34112184  0.86746872  0.35390757    -0.15100
C468        C  0.33086633  0.86242919  0.31791654     0.07000
C469        C  0.35433293  0.86595866  0.29164002    -0.15100
C470        C  0.38816340  0.87765272  0.30078006    -0.15100
C471        C  0.39913516  0.88585910  0.33638695     0.07000
C472        C  0.37492529  0.87903906  0.36307237    -0.15100
H473        H  0.32352595  0.86489319  0.37479858     0.11000
H474        H  0.34731653  0.86260558  0.26372416     0.11000
H475        H  0.40613065  0.88219957  0.27958399     0.11000
H476        H  0.38245684  0.88469768  0.39074477     0.11000
C477        C  0.31762557  0.95169272  0.18702166    -0.15100
C478        C  0.32521754  0.93882172  0.21735314     0.07000
C479        C  0.35847368  0.94591338  0.22307925    -0.15100
C480        C  0.38411489  0.96640152  0.19926267    -0.15100
C481        C  0.37710600  0.98103561  0.16994846     0.07000
C482        C  0.34355366  0.97324366  0.16379001    -0.15100
H483        H  0.29188050  0.94598248  0.18204769     0.11000
H484        H  0.36456908  0.93556457  0.24599864     0.11000
H485        H  0.40982494  0.97242578  0.20505619     0.11000
H486        H  0.33760712  0.98457633  0.14168403     0.11000
C487        C  0.25744716  0.01840443  0.35270072    -0.15100
C488        C  0.24044081  0.01048784  0.38564495     0.07000
C489        C  0.21771672  0.97666672  0.39410571    -0.15100
C490        C  0.21237925  0.95106055  0.37023750    -0.15100
C491        C  0.23055503  0.95870594  0.33800024     0.07000
C492        C  0.25311089  0.99261485  0.32936785    -0.15100
H493        H  0.27483209  0.04443013  0.34558395     0.11000
H494        H  0.20388511  0.97006773  0.41911814     0.11000
H495        H  0.19532477  0.92510193  0.37787167     0.11000
H496        H  0.26780887  0.99906402  0.30495446     0.11000
C497        C  0.18608174  0.85822297  0.15942956    -0.15100
C498        C  0.17394717  0.86071445  0.19300608     0.07000
C499        C  0.14438089  0.86316219  0.19475207    -0.15100
C500        C  0.12605803  0.86072362  0.16364854    -0.15100
C501        C  0.13721408  0.85616475  0.13024717     0.07000
C502        C  0.16811625  0.85621668  0.12848771    -0.15100
H503        H  0.20911081  0.85696101  0.15713758     0.11000
H504        H  0.13452695  0.86528106  0.22031367     0.11000
H505        H  0.10229174  0.86054460  0.16596633     0.11000
H506        H  0.17769169  0.85307355  0.10318220     0.11000
C507        C  0.21437604  0.88361628  0.42893882    -0.15100
C508        C  0.21006793  0.85698088  0.40690691     0.07000
C509        C  0.18919142  0.82354712  0.41829392    -0.15100
C510        C  0.16975146  0.81681622  0.44918307    -0.15100
C511        C  0.17018413  0.84343524  0.46812049     0.07000
C512        C  0.19398367  0.87687258  0.45910060    -0.15100
H513        H  0.23034923  0.90958321  0.42059042     0.11000
H514        H  0.18560159  0.80266095  0.40161574     0.11000
H515        H  0.15131649  0.79086372  0.45555568     0.11000
H516        H  0.19444291  0.89770350  0.47331692     0.11000
C517        C  0.22030583  0.22128307  0.46164130    -0.15100
C518        C  0.19126880  0.20880616  0.48325691     0.07000
C519        C  0.17457804  0.17468938  0.99371053    -0.15100
C520        C  0.18676965  0.15350487  0.98260505    -0.15100
C521        C  0.21625218  0.16645252  0.46172251     0.07000
C522        C  0.23288662  0.20042264  0.45136058    -0.15100
H523        H  0.23388265  0.24749380  0.45342222     0.11000
H524        H  0.15226526  0.16454942  0.01051788     0.11000
H525        H  0.17400161  0.12748710  0.99145359     0.11000
H526        H  0.25583364  0.21090021  0.43548985     0.11000
C527        C  0.26661052  0.27299971  0.08081669    -0.15100
C528        C  0.25478824  0.29250770  0.09765127     0.07000
C529        C  0.26999279  0.30963199  0.12931595    -0.15100
C530        C  0.29519778  0.30523677  0.14531812    -0.15100
C531        C  0.30595174  0.28439369  0.12926022     0.07000
C532        C  0.29227451  0.26928089  0.09626941    -0.15100
H533        H  0.25533138  0.25992424  0.05605843     0.11000
H534        H  0.26116468  0.32484083  0.14252451     0.11000
H535        H  0.30545412  0.31716075  0.17080520     0.11000
H536        H  0.29994013  0.25295036  0.08346824     0.11000
C537        C  0.14003520  0.32243901  0.19514421    -0.15100
C538        C  0.14349796  0.35477393  0.19365380     0.07000
C539        C  0.14667146  0.36980051  0.16028212    -0.15100
C540        C  0.14818891  0.35383661  0.12922809    -0.15100
C541        C  0.14713621  0.32258835  0.13066492     0.07000
C542        C  0.14204624  0.30653795  0.16388113    -0.15100
H543        H  0.13734324  0.31017171  0.22058589     0.11000
H544        H  0.14871717  0.39435854  0.15821198     0.11000
H545        H  0.15178242  0.36684443  0.10409044     0.11000
H546        H  0.14135534  0.28260418  0.16591171     0.11000
C547        C  0.17642427  0.40669565  0.42047968    -0.15100
C548        C  0.14327101  0.39270665  0.40740036     0.07000
C549        C  0.11611639  0.36831733  0.42763570    -0.15100
C550        C  0.12251167  0.35433423  0.45761475    -0.15100
C551        C  0.15603174  0.36566278  0.46827249     0.07000
C552        C  0.18272370  0.39363873  0.45123728    -0.15100
H553        H  0.19766094  0.42555635  0.40515842     0.11000
H554        H  0.09033855  0.35729061  0.41798525     0.11000
H555        H  0.10160978  0.33262989  0.47037635     0.11000
H556        H  0.20876831  0.40247759  0.45882244     0.11000
C557        C  0.00876835  0.19983951  0.02154298    -0.15100
C558        C  0.99780105  0.19290356  0.48574636     0.07000
C559        C  0.02055080  0.19467104  0.45945986    -0.15100
C560        C  0.05456825  0.20679277  0.46810575    -0.15100
C561        C  0.06622488  0.21715214  0.00324343     0.07000
C562        C  0.04268388  0.21184370  0.03015569    -0.15100
H563        H  0.99175418  0.19859919  0.04246661     0.11000
H564        H  0.01289312  0.18976357  0.43176262     0.11000
H565        H  0.07211894  0.21013437  0.44686332     0.11000
H566        H  0.05084632  0.21919509  0.05743609     0.11000
C567        C  0.02669945  0.28067043  0.39207949    -0.15100
C568        C  0.99276140  0.27010427  0.38461588     0.07000
C569        C  0.98435253  0.27952030  0.35222987    -0.15100
C570        C  0.00992950  0.30115734  0.32865115    -0.15100
C571        C  0.04402649  0.31226749  0.33650622     0.07000
C572        C  0.05201514  0.30097774  0.36790312    -0.15100
H573        H  0.03359843  0.27306294  0.41655241     0.11000
H574        H  0.95812615  0.27111321  0.34584378     0.11000
H575        H  0.00322195  0.30982977  0.30483709     0.11000
H576        H  0.07813905  0.30946870  0.37484455     0.11000
C577        C  0.63247098  0.16517729  0.15394013    -0.15100
C578        C  0.64693704  0.14443248  0.15200579     0.07000
C579        C  0.62784978  0.11174900  0.13804545    -0.15100
C580        C  0.59462570  0.09955806  0.12697626    -0.15100
C581        C  0.57978691  0.11994965  0.12901415     0.07000
C582        C  0.59913163  0.15311536  0.14207278    -0.15100
H583        H  0.64694621  0.19058618  0.16440813     0.11000
H584        H  0.63844565  0.09524901  0.13643626     0.11000
H585        H  0.58037645  0.07389704  0.11711489     0.11000
H586        H  0.58814324  0.16922496  0.14417356     0.11000
C587        C  0.66676696  0.06118244  0.29511936    -0.15100
C588        C  0.66480635  0.08011954  0.26679618     0.07000
C589        C  0.63297806  0.07134225  0.25248367    -0.15100
C590        C  0.60343510  0.04489346  0.26699380    -0.15100
C591        C  0.60511788  0.02725839  0.29668117     0.07000
C592        C  0.63699509  0.03523130  0.31040078    -0.15100
H593        H  0.69108333  0.06741260  0.30633672     0.11000
H594        H  0.63092968  0.08530805  0.23022874     0.11000
H595        H  0.57919036  0.03953312  0.25628792     0.11000
H596        H  0.63878062  0.02198404  0.33348893     0.11000
C597        C  0.79445187  0.19334173  0.33220694    -0.15100
C598        C  0.80481944  0.18693545  0.29922162     0.07000
C599        C  0.83490634  0.18546556  0.29782093    -0.15100
C600        C  0.85287923  0.18794184  0.32878692    -0.15100
C601        C  0.84158581  0.19241731  0.36201661     0.07000
C602        C  0.81282542  0.19624099  0.36338276    -0.15100
H603        H  0.77131142  0.19441526  0.33418579     0.11000
H604        H  0.84387167  0.18087908  0.27284387     0.11000
H605        H  0.87527596  0.18552071  0.32679576     0.11000
H606        H  0.80365718  0.19986362  0.38870887     0.11000
C607        C  0.83993780  0.15047547  0.11912344    -0.15100
C608        C  0.83867868  0.17662916  0.13721663     0.07000
C609        C  0.86106093  0.21025582  0.12730808    -0.15100
C610        C  0.88150171  0.21739022  0.09710353    -0.15100
C611        C  0.87885755  0.19090993  0.07596197     0.07000
C612        C  0.85952479  0.15754696  0.08823464    -0.15100
H613        H  0.82255803  0.12435863  0.12604249     0.11000
H614        H  0.86024076  0.23076314  0.14080864     0.11000
H615        H  0.89621377  0.24328816  0.08805019     0.11000
H616        H  0.85718658  0.13679140  0.07220389     0.11000
C617        C  0.97044572  0.70397604  0.14292771    -0.15100
C618        C  0.93833995  0.69518436  0.12924415     0.07000
C619        C  0.93612064  0.71243826  0.09945841    -0.15100
C620        C  0.96532696  0.73915604  0.08470110    -0.15100
C621        C  0.99737375  0.74857745  0.09885781     0.07000
C622        C  0.99987669  0.73017172  0.12739253    -0.15100
H623        H  0.97266898  0.69108778  0.16607004     0.11000
H624        H  0.91166932  0.70644804  0.08873044     0.11000
H625        H  0.96286090  0.75272312  0.06232028     0.11000
H626        H  0.02439261  0.73693766  0.13852213     0.11000
C627        C  0.92827916  0.81690171  0.47787072    -0.15100
C628        C  0.91076900  0.78560610  0.46027979     0.07000
C629        C  0.92748015  0.76752558  0.45346224    -0.15100
C630        C  0.96098665  0.78030833  0.46406176    -0.15100
C631        C  0.97837050  0.81112512  0.48247658     0.07000
C632        C  0.96144446  0.82902035  0.98971654    -0.15100
H633        H  0.91519307  0.83044754  0.98459434     0.11000
H634        H  0.91448353  0.74326932  0.44013408     0.11000
H635        H  0.97306366  0.76555904  0.45864426     0.11000
H636        H  0.97418959  0.85261813  0.00426645     0.11000
C637        C  0.81509510  0.70451752  0.32736255    -0.15100
C638        C  0.80793552  0.68781498  0.36028178     0.07000
C639        C  0.80155905  0.65433649  0.36109779    -0.15100
C640        C  0.80445066  0.63880188  0.32985925    -0.15100
C641        C  0.81341715  0.65638973  0.29726922     0.07000
C642        C  0.81759454  0.68902733  0.29638215    -0.15100
H643        H  0.81961614  0.73007436  0.32561290     0.11000
H644        H  0.79581366  0.64073548  0.38609560     0.11000
H645        H  0.80121099  0.61373795  0.33153526     0.11000
H646        H  0.82424884  0.70337678  0.27181573     0.11000
C647        C  0.84639704  0.74073925  0.08588393    -0.15100
C648        C  0.81279694  0.72811317  0.07463791     0.07000
C649        C  0.78610470  0.70540685  0.09655240    -0.15100
C650        C  0.79294516  0.69172213  0.12651645    -0.15100
C651        C  0.82653292  0.70146430  0.13538891     0.07000
C652        C  0.85322987  0.72783772  0.11649759    -0.15100
H653        H  0.86732355  0.75823826  0.06924328     0.11000
H654        H  0.76001852  0.69515286  0.08819267     0.11000
H655        H  0.77203497  0.67118149  0.14063515     0.11000
H656        H  0.87930166  0.73538156  0.12263737     0.11000
C657        C  0.16190308  0.70816261  0.32559972    -0.15100
C658        C  0.12719717  0.69066817  0.31710779     0.07000
C659        C  0.11389641  0.70722257  0.29695494    -0.15100
C660        C  0.13451265  0.74060780  0.28611192    -0.15100
C661        C  0.16914408  0.75812397  0.29441562     0.07000
C662        C  0.18283558  0.74154917  0.31392078    -0.15100
H663        H  0.17279608  0.69604006  0.34113585     0.11000
H664        H  0.08721326  0.69456857  0.29021737     0.11000
H665        H  0.12329127  0.75286606  0.27133298     0.11000
H666        H  0.20941493  0.75477810  0.32112107     0.11000
C667        C  0.02428089  0.66979039  0.45978657    -0.15100
C668        C  0.04680576  0.67183355  0.43306960     0.07000
C669        C  0.07118108  0.70368487  0.41999590    -0.15100
C670        C  0.07371379  0.73304510  0.43406018    -0.15100
C671        C  0.05255208  0.73116699  0.46215312     0.07000
C672        C  0.02755949  0.69934559  0.47471722    -0.15100
H673        H  0.00512046  0.64549408  0.47000679     0.11000
H674        H  0.08848217  0.70588971  0.39893879     0.11000
H675        H  0.09339933  0.75728343  0.42422214     0.11000
H676        H  0.01111717  0.69742526  0.49656749     0.11000
C677        C  0.12047396  0.54834898  0.29809305    -0.15100
C678        C  0.11507307  0.55362445  0.33398313     0.07000
C679        C  0.12419021  0.53829101  0.36080715    -0.15100
C680        C  0.13581884  0.51612511  0.35190063    -0.15100
C681        C  0.13886525  0.50898940  0.31599958     0.07000
C682        C  0.13235395  0.52637283  0.28920683    -0.15100
H683        H  0.11383532  0.55983969  0.27669169     0.11000
H684        H  0.12059877  0.54195781  0.38865621     0.11000
H685        H  0.14043363  0.50291206  0.37314657     0.11000
H686        H  0.13379204  0.52093654  0.26134218     0.11000
C687        C  0.95347951  0.59508355  0.26862504    -0.15100
C688        C  0.97132254  0.61508973  0.29797731     0.07000
C689        C  0.96305521  0.63880883  0.31125523    -0.15100
C690        C  0.93713351  0.64227384  0.29543633    -0.15100
C691        C  0.91840485  0.62117275  0.26703999     0.07000
C692        C  0.92699812  0.59779118  0.25361314    -0.15100
H693        H  0.95899163  0.57625291  0.25830045     0.11000
H694        H  0.97633659  0.65427980  0.33413092     0.11000
H695        H  0.93095754  0.66051936  0.30609560     0.11000
H696        H  0.91311774  0.58149559  0.23143427     0.11000
C697        C  0.80743081  0.31301885  0.12660585    -0.15100
C698        C  0.82784229  0.33617225  0.15285705     0.07000
C699        C  0.82345385  0.32538661  0.18865324    -0.15100
C700        C  0.80134797  0.29161172  0.19759922    -0.15100
C701        C  0.78316375  0.26782431  0.17091655     0.07000
C702        C  0.78536145  0.27916649  0.13554717    -0.15100
H703        H  0.81046458  0.32038947  0.09882152     0.11000
H704        H  0.83886445  0.34263589  0.20955764     0.11000
H705        H  0.80005590  0.28380349  0.22507277     0.11000
H706        H  0.77137948  0.26150471  0.11435759     0.11000
C707        C  0.88731214  0.31137797  0.06027930    -0.15100
C708        C  0.91106451  0.34499035  0.05227897     0.07000
C709        C  0.92923114  0.35261070  0.02006615    -0.15100
C710        C  0.92483534  0.32656224  0.99702365    -0.15100
C711        C  0.90106521  0.29281242  0.00518914     0.07000
C712        C  0.88190168  0.28562373  0.03666764    -0.15100
H713        H  0.87266263  0.30506911  0.08473433     0.11000
H714        H  0.94746811  0.37852148  0.01335034     0.11000
H715        H  0.94068521  0.33271068  0.47341506     0.11000
H716        H  0.86390658  0.25981855  0.04399703     0.11000
C717        C  0.89968660  0.53303732  0.12169361    -0.15100
C718        C  0.88105613  0.49812432  0.12781499     0.07000
C719        C  0.84894271  0.48422027  0.14400631    -0.15100
C720        C  0.83643127  0.50528120  0.15514536    -0.15100
C721        C  0.85554306  0.54031929  0.14935590     0.07000
C722        C  0.88697484  0.55377125  0.13198230    -0.15100
H723        H  0.92449531  0.54447722  0.10932548     0.11000
H724        H  0.83422211  0.45738628  0.14930346     0.11000
H725        H  0.81202365  0.49429579  0.16831573     0.11000
H726        H  0.90234760  0.58067358  0.12727757     0.11000
C727        C  0.03742466  0.42018523  0.16002405    -0.15100
C728        C  0.02533463  0.44168486  0.17047335     0.07000
C729        C  0.03543480  0.45844222  0.20342441    -0.15100
C730        C  0.05537885  0.45205735  0.22662621    -0.15100
C731        C  0.06652690  0.42973328  0.21671860     0.07000
C732        C  0.05855582  0.41481390  0.18275518    -0.15100
H733        H  0.02958465  0.40673165  0.13490949     0.11000
H734        H  0.02604487  0.47477799  0.21229473     0.11000
H735        H  0.06200422  0.46445325  0.25239238     0.11000
H736        H  0.06749242  0.39794690  0.17448868     0.11000
C737        C  0.98285212  0.50173560  0.46431199    -0.15100
C738        C  0.01400633  0.53232956  0.46582924     0.07000
C739        C  0.02989623  0.54342482  0.49917043    -0.15100
C740        C  0.01382210  0.52541892  0.03045974    -0.15100
C741        C  0.98149624  0.49614719  0.02886242     0.07000
C742        C  0.96676880  0.48411165  0.99534217    -0.15100
H743        H  0.96997516  0.49217457  0.43910909     0.11000
H744        H  0.05374895  0.56695531  0.50132840     0.11000
H745        H  0.02594587  0.53516459  0.05595629     0.11000
H746        H  0.94227854  0.46129025  0.99310578     0.11000
C747        C  0.96517001  0.45512747  0.26423175    -0.15100
C748        C  0.94163987  0.45820599  0.24287267     0.07000
C749        C  0.92786559  0.47780121  0.25504061    -0.15100
C750        C  0.94054806  0.49735212  0.28585922    -0.15100
C751        C  0.96782669  0.49824931  0.30404011     0.07000
C752        C  0.97866900  0.47554551  0.29436418    -0.15100
H753        H  0.97612578  0.44016273  0.25534206     0.11000
H754        H  0.90961839  0.48042894  0.23893623     0.11000
H755        H  0.93211165  0.51496431  0.29263818     0.11000
H756        H  0.99988867  0.47608766  0.30795466     0.11000
C757        C  0.78188420  0.03934962  0.46041880    -0.15100
C758        C  0.79436889  0.02276995  0.48176921     0.07000
C759        C  0.82861077  0.04024536  0.99198904    -0.15100
C760        C  0.84973960  0.07388789  0.48167754    -0.15100
C761        C  0.83668950  0.09063332  0.46151713     0.07000
C762        C  0.80270752  0.07303177  0.45080102    -0.15100
H763        H  0.75560899  0.02660073  0.45208308     0.11000
H764        H  0.83888172  0.02800912  0.00831153     0.11000
H765        H  0.87593881  0.08717155  0.99022106     0.11000
H766        H  0.79216022  0.08548655  0.43523525     0.11000
C767        C  0.73940078  0.06542297  0.10034988    -0.15100
C768        C  0.71973589  0.06320716  0.13007999     0.07000
C769        C  0.69573560  0.03121346  0.14326428    -0.15100
C770        C  0.69203966  0.00185956  0.12733131    -0.15100
C771        C  0.71315090  0.00429584  0.09887290     0.07000
C772        C  0.73642342  0.03626644  0.08517236    -0.15100
H773        H  0.75837123  0.08977063  0.09003208     0.11000
H774        H  0.68043729  0.02899869  0.16635276     0.11000
H775        H  0.67380579  0.97744530  0.13812136     0.11000
H776        H  0.75265255  0.03872409  0.06286016     0.11000
C777        C  0.78656459  0.88139199  0.46365397    -0.15100
C778        C  0.78186085  0.88725260  0.99940207     0.07000
C779        C  0.79272327  0.87358350  0.02633358    -0.15100
C780        C  0.80477629  0.85177144  0.01761104    -0.15100
C781        C  0.80675391  0.84373247  0.48200714     0.07000
C782        C  0.79891324  0.85985694  0.45497771    -0.15100
H783        H  0.77874238  0.89177626  0.44217085     0.11000
H784        H  0.79012426  0.87819322  0.05416802     0.11000
H785        H  0.81066766  0.83963408  0.03897615     0.11000
H786        H  0.79948806  0.85358352  0.42721435     0.11000
C787        C  0.62394318  0.93329215  0.43206674    -0.15100
C788        C  0.63937514  0.95023395  0.46378310     0.07000
C789        C  0.62916335  0.97163460  0.47952544    -0.15100
C790        C  0.60327593  0.97535020  0.46412077    -0.15100
C791        C  0.58670605  0.95685948  0.43350591     0.07000
C792        C  0.59756124  0.93626361  0.41732057    -0.15100
H793        H  0.63101533  0.91632691  0.41970376     0.11000
H794        H  0.64109949  0.98526269  0.00373618     0.11000
H795        H  0.59524619  0.99141103  0.47686061     0.11000
H796        H  0.58527144  0.92209113  0.39339234     0.11000
C797        C  0.56599719  0.86667152  0.28711232    -0.15100
C798        C  0.54817337  0.83200633  0.29450935     0.07000
C799        C  0.51711790  0.81820856  0.31289029    -0.15100
C800        C  0.50477789  0.83916933  0.32474816    -0.15100
C801        C  0.52297221  0.87397003  0.31752415     0.07000
C802        C  0.55339752  0.88730383  0.29812515    -0.15100
H803        H  0.59001885  0.87794916  0.27309983     0.11000
H804        H  0.50313886  0.79155156  0.31924262     0.11000
H805        H  0.48118613  0.82827927  0.33950554     0.11000
H806        H  0.56807494  0.91404706  0.29225978     0.11000
C807        C  0.69831195  0.74746305  0.33015637    -0.15100
C808        C  0.68796694  0.77086581  0.33830616     0.07000
C809        C  0.69880010  0.78919548  0.37035202    -0.15100
C810        C  0.71865938  0.78346687  0.39438564    -0.15100
C811        C  0.72903164  0.76017493  0.38622200     0.07000
C812        C  0.71932979  0.74267200  0.35366186    -0.15100
H813        H  0.68966082  0.73253851  0.30598819     0.11000
H814        H  0.69051717  0.80680838  0.37768348     0.11000
H815        H  0.72632684  0.79757628  0.41914403     0.11000
H816        H  0.72736319  0.72474814  0.34686695     0.11000
C817        C  0.68004473  0.85881254  0.19566095    -0.15100
C818        C  0.64758464  0.82970703  0.19417299     0.07000
C819        C  0.63248899  0.81800992  0.16073796    -0.15100
C820        C  0.64852217  0.83560556  0.12969922    -0.15100
C821        C  0.68000575  0.86583601  0.13106346     0.07000
C822        C  0.69604744  0.87685598  0.16436082    -0.15100
H823        H  0.69237141  0.86838152  0.22110624     0.11000
H824        H  0.60781036  0.79541613  0.15857191     0.11000
H825        H  0.63542413  0.82614686  0.10458530     0.11000
H826        H  0.72011063  0.90018108  0.16641643     0.11000
C827        C  0.62994816  0.78739422  0.42952694    -0.15100
C828        C  0.60672262  0.79076720  0.40795279     0.07000
C829        C  0.59348197  0.81094250  0.41974942    -0.15100
C830        C  0.60648305  0.83079543  0.45032603    -0.15100
C831        C  0.63349917  0.83133832  0.46870109     0.07000
C832        C  0.64377244  0.80809528  0.45943219    -0.15100
H833        H  0.64047408  0.77196585  0.42093004     0.11000
H834        H  0.57548675  0.81381681  0.40346154     0.11000
H835        H  0.59850867  0.84883793  0.45675816     0.11000
H836        H  0.66477312  0.80834289  0.47318583     0.11000
C837        C  0.26369066  0.43695375  0.28194510    -0.15100
C838        C  0.24582837  0.45282780  0.29320554     0.07000
C839        C  0.26230410  0.48202802  0.31433574    -0.15100
C840        C  0.29590882  0.49444741  0.32518237    -0.15100
C841        C  0.31367125  0.47828373  0.31423832     0.07000
C842        C  0.29739323  0.44979356  0.29196045    -0.15100
H843        H  0.25139386  0.41433059  0.26572149     0.11000
H844        H  0.24874446  0.49436156  0.32364396     0.11000
H845        H  0.30787521  0.51642740  0.34232385     0.11000
H846        H  0.31036636  0.43668101  0.28321624     0.11000
C847        C  0.29850720  0.40484747  0.41568833    -0.15100
C848        C  0.33031051  0.41418217  0.43050024     0.07000
C849        C  0.33227754  0.39600176  0.45954652    -0.15100
C850        C  0.30255445  0.37033999  0.47510578    -0.15100
C851        C  0.27067091  0.36188620  0.46103890     0.07000
C852        C  0.26894826  0.37865109  0.43056711    -0.15100
H853        H  0.29650268  0.41824995  0.39285905     0.11000
H854        H  0.35658039  0.40267264  0.47114614     0.11000
H855        H  0.30438611  0.35771509  0.49870792     0.11000
H856        H  0.24468065  0.37283408  0.41949949     0.11000
C857        C  0.46423064  0.62620355  0.36154973    -0.15100
C858        C  0.44859660  0.60184028  0.33467696     0.07000
C859        C  0.45261927  0.61257354  0.29888319    -0.15100
C860        C  0.47408291  0.64645616  0.28993758    -0.15100
C861        C  0.49212392  0.67027851  0.31659470     0.07000
C862        C  0.48584595  0.66009425  0.35257030    -0.15100
H863        H  0.46139826  0.61883242  0.38932326     0.11000
H864        H  0.44066772  0.59447316  0.27747936     0.11000
H865        H  0.47877767  0.65338707  0.26204408     0.11000
H866        H  0.49955356  0.67795993  0.37371696     0.11000
C867        C  0.40630548  0.39945275  0.26578109    -0.15100
C868        C  0.38626201  0.39767271  0.29495364     0.07000
C869        C  0.36139465  0.36595601  0.30785825    -0.15100
C870        C  0.35726852  0.33635019  0.29226944    -0.15100
C871        C  0.37875646  0.33828461  0.26445538     0.07000
C872        C  0.40285317  0.37001800  0.25093332    -0.15100
H873        H  0.42590731  0.42363199  0.25570382     0.11000
H874        H  0.34578639  0.36414833  0.33049811     0.11000
H875        H  0.33838120  0.31209904  0.30286438     0.11000
H876        H  0.41935469  0.37206119  0.22907674     0.11000
C877        C  0.67385235  0.53102955  0.18518084    -0.15100
C878        C  0.66358815  0.52671568  0.14923807     0.07000
C879        C  0.68738333  0.53205973  0.12258692    -0.15100
C880        C  0.72145397  0.54483282  0.13150386    -0.15100
C881        C  0.73228078  0.55230030  0.16723091     0.07000
C882        C  0.70786809  0.54372783  0.19410338    -0.15100
H883        H  0.65599659  0.52707115  0.20632693     0.11000
H884        H  0.68033061  0.52932916  0.09469433     0.11000
H885        H  0.73961454  0.55072888  0.11015275     0.11000
H886        H  0.71529488  0.54873302  0.22185187     0.11000
C887        C  0.69030864  0.61132848  0.05733030    -0.15100
C888        C  0.65675102  0.60274145  0.05056762     0.07000
C889        C  0.64901473  0.61490240  0.01975319    -0.15100
C890        C  0.67514419  0.63767513  0.49729369    -0.15100
C891        C  0.70884035  0.64643977  0.00428633     0.07000
C892        C  0.71608481  0.63258959  0.03410312    -0.15100
H893        H  0.69657623  0.60164290  0.08071448     0.11000
H894        H  0.62309120  0.60815057  0.01405747     0.11000
H895        H  0.66907725  0.64864168  0.47490592     0.11000
H896        H  0.74196411  0.63979913  0.04069279     0.11000
C897        C  0.46774705  0.40420038  0.11513564    -0.15100
C898        C  0.50160892  0.42202296  0.12628399     0.07000
C899        C  0.51453076  0.40544920  0.14693416    -0.15100
C900        C  0.49330137  0.37188527  0.15767582    -0.15100
C901        C  0.45914680  0.35425211  0.14707143     0.07000
C902        C  0.44686496  0.37056868  0.12500966    -0.15100
H903        H  0.45728965  0.41650829  0.09917928     0.11000
H904        H  0.54056533  0.41891392  0.15605059     0.11000
H905        H  0.50342923  0.35988407  0.17457025     0.11000
H906        H  0.42065765  0.35771189  0.11642891     0.11000
C907        C  0.54536721  0.61736905  0.20244339    -0.15100
C908        C  0.56438871  0.62422231  0.17088972     0.07000
C909        C  0.58765349  0.65794954  0.16204124    -0.15100
C910        C  0.59191893  0.68427602  0.18459724    -0.15100
C911        C  0.57410386  0.67704725  0.21701612     0.07000
C912        C  0.55058896  0.64345550  0.22553685    -0.15100
H913        H  0.52774934  0.59160904  0.21030368     0.11000
H914        H  0.60298881  0.66383059  0.13814088     0.11000
H915        H  0.60995728  0.71012047  0.17742619     0.11000
H916        H  0.53617340  0.63738950  0.25013463     0.11000
C917        C  0.51738552  0.52126814  0.49470860    -0.15100
C918        C  0.50542670  0.52469569  0.02796042     0.07000
C919        C  0.47662362  0.52848548  0.02915808    -0.15100
C920        C  0.45878751  0.52637859  0.49783123    -0.15100
C921        C  0.46969334  0.52074964  0.46475544     0.07000
C922        C  0.49989567  0.51947396  0.46357493    -0.15100
H923        H  0.53987012  0.51899706  0.49276441     0.11000
H924        H  0.46706636  0.53157331  0.05448707     0.11000
H925        H  0.43551946  0.52722190  0.99955291     0.11000
H926        H  0.50932000  0.51550772  0.43857705     0.11000
C927        C  0.52497272  0.48960320  0.25428548    -0.15100
C928        C  0.54473164  0.52279257  0.24175395     0.07000
C929        C  0.54844776  0.54973174  0.26287248    -0.15100
C930        C  0.52840940  0.54328343  0.29326084    -0.15100
C931        C  0.50541735  0.50988720  0.30330581     0.07000
C932        C  0.50580016  0.48320572  0.28535286    -0.15100
H933        H  0.52188780  0.46852432  0.23829692     0.11000
H934        H  0.56352730  0.57552128  0.25358396     0.11000
H935        H  0.52827123  0.56417187  0.30669569     0.11000
H936        H  0.48796350  0.45725874  0.29245367     0.11000
O937        O  0.59140047  0.59957778  0.63906688    -0.83600
C938        C  0.52223244  0.45851909  0.61895790     0.95800
O939        O  0.50837445  0.47646099  0.62106605    -0.72700
O940        O  0.53295615  0.50912310  0.68121216    -0.76300
Al941      Al  0.52800062  0.52305266  0.63527230     1.49000
C942        C  0.55411322  0.52877695  0.70388772     0.91000
O943        O  0.62007277  0.53775704  0.66175262    -0.82500
O944        O  0.60385730  0.55531879  0.56297383    -0.76100
Al945      Al  0.60425332  0.56692338  0.64880588     1.90100
O946        O  0.61927144  0.51792535  0.60850073    -0.75100
O947        O  0.54012147  0.50852589  0.55981857    -0.75000
O948        O  0.55320322  0.47173447  0.61094821    -0.80600
O949        O  0.51960909  0.53571413  0.58977298    -0.78800
O950        O  0.57028131  0.53516891  0.62393852    -1.15000
O951        O  0.53807654  0.56672935  0.65337274    -0.74200
C952        C  0.56417289  0.59586169  0.65185051     0.96500
C953        C  0.63183963  0.52577214  0.63957933     0.92900
Al954      Al  0.57827324  0.51466514  0.58834161     1.55600
O955        O  0.58089738  0.55518187  0.69417065    -0.78800
C956        C  0.52272954  0.52322614  0.56088269     0.97100
C957        C  0.63019255  0.58028594  0.57526120     0.92000
O958        O  0.63486608  0.58496013  0.60861167    -0.84100
O959        O  0.46068346  0.51929712  0.81525980    -0.83600
C960        C  0.36072433  0.44329778  0.91547157     0.95800
O961        O  0.38849358  0.44346789  0.91350971    -0.72700
O962        O  0.39249395  0.42745969  0.84791338    -0.76300
Al963      Al  0.42305991  0.46343553  0.87709553     1.49000
C964        C  0.39468744  0.42861676  0.81450522     0.91000
O965        O  0.36623433  0.48049192  0.80951061    -0.82500
O966        O  0.42664524  0.55486078  0.87496926    -0.76100
Al967      Al  0.41326011  0.49960960  0.81384153     1.90100
O968        O  0.36022469  0.50805647  0.85440740    -0.75100
O969        O  0.42233836  0.51478014  0.92970379    -0.75000
O970        O  0.35831172  0.46776706  0.90394418    -0.80600
O971        O  0.45452512  0.49615146  0.90786774    -0.78800
O972        O  0.41000725  0.49119034  0.86009569    -1.15000
O973        O  0.46045091  0.47720056  0.84374132    -0.74200
C974        C  0.47483422  0.50256170  0.82313697     0.96500
C975        C  0.34852827  0.48979689  0.82663823     0.92900
Al976      Al  0.39331613  0.51007225  0.88876958     1.55600
O977        O  0.40709844  0.45659090  0.79839757    -0.78800
C978        C  0.44797653  0.51086282  0.93226050     0.97100
C979        C  0.43073427  0.56525969  0.84308961     0.92000
O980        O  0.42023557  0.54438765  0.81759996    -0.84100
O981        O  0.63766548  0.74464940  0.80429759    -0.83600
C982        C  0.56401973  0.81162971  0.78617316     0.95800
O983        O  0.59597013  0.82564526  0.78728062    -0.72700
O984        O  0.60439380  0.80161825  0.84731789    -0.76300
Al985      Al  0.62335269  0.80668023  0.80136113     1.49000
C986        C  0.60357070  0.78102968  0.87018734     0.91000
O987        O  0.54691142  0.71420275  0.82885786    -0.82500
O988        O  0.57939812  0.73016973  0.72929469    -0.76100
Al989      Al  0.59205934  0.73090647  0.81510014     1.90100
O990        O  0.52703607  0.71498956  0.77603525    -0.75100
O991        O  0.59630877  0.79397476  0.72604789    -0.75000
O992        O  0.54630257  0.78076861  0.77812395    -0.80600
O993        O  0.64437647  0.81521306  0.75578038    -0.78800
O994        O  0.59339435  0.76433166  0.79028056    -1.15000
O995        O  0.65745666  0.79739259  0.81944798    -0.74200
C996        C  0.66075366  0.77158214  0.81780085     0.96500
C997        C  0.52283464  0.70231922  0.80702514     0.92900
Al998      Al  0.56439829  0.75586029  0.75510146     1.55600
O999        O  0.60382743  0.75458090  0.86059699    -0.78800
C1000       C  0.62854668  0.81198035  0.72700824     0.97100
C1001       C  0.57853578  0.70414648  0.74158728     0.92000
O1002       O  0.57942063  0.70009508  0.77498110    -0.84100
O1003       O  0.68773459  0.87653768  0.98026494    -0.83600
C1004       C  0.71185981  0.97414648  0.58324893     0.95800
O1005       O  0.68420183  0.94639092  0.58119259    -0.72700
O1006       O  0.66338189  0.94305674  0.51607681    -0.76300
Al1007     Al  0.66941623  0.91240532  0.54409657     1.49000
C1008       C  0.66236886  0.94172879  0.98260314     0.91000
O1009       O  0.74362125  0.97068787  0.97680883    -0.82500
O1010       O  0.75742665  0.90925518  0.54041598    -0.76100
Al1011     Al  0.71556321  0.92378221  0.98013107     1.90100
O1012       O  0.77752337  0.97567680  0.52102195    -0.75100
O1013       O  0.72179862  0.91302894  0.59608826    -0.75000
O1014       O  0.73883987  0.97689576  0.57109444    -0.80600
O1015       O  0.67112666  0.88065464  0.57386974    -0.78800
O1016       O  0.71037346  0.92601690  0.52660003    -1.15000
O1017       O  0.64568254  0.87563772  0.51009136    -0.74200
C1018       C  0.65681535  0.86192677  0.98866363     0.96500
C1019       C  0.77087753  0.98789734  0.49380259     0.92900
Al1020     Al  0.74615881  0.94228748  0.55513552     1.55600
O1021       O  0.67851597  0.93030644  0.96571621    -0.78800
C1022       C  0.69219497  0.88733620  0.59853236     0.97100
C1023       C  0.76363027  0.90549554  0.50835850     0.92000
O1024       O  0.75344957  0.91654668  0.98312584    -0.84100
O1025       O  0.97402881  0.41373621  0.63893476    -0.83600
C1026       C  0.89723430  0.47760963  0.62031701     0.95800
O1027       O  0.92917653  0.49193723  0.62191159    -0.72700
O1028       O  0.93840170  0.46870200  0.68225558    -0.76300
Al1029     Al  0.95737476  0.47404760  0.63620538     1.49000
C1030       C  0.93845334  0.44851115  0.70511874     0.91000
O1031       O  0.88290672  0.38050746  0.66413171    -0.82500
O1032       O  0.91475346  0.39705189  0.56466936    -0.76100
Al1033     Al  0.92818583  0.39864000  0.65015737     1.90100
O1034       O  0.86212388  0.38085814  0.61166712    -0.75100
O1035       O  0.93032788  0.46019305  0.56073616    -0.75000
O1036       O  0.87993447  0.44657271  0.61274552    -0.80600
O1037       O  0.97834643  0.48263988  0.59067709    -0.78800
O1038       O  0.92817366  0.43142079  0.62535262    -1.15000
O1039       O  0.99240851  0.46619976  0.65420465    -0.74200
C1040       C  0.99686982  0.44115691  0.65180633     0.96500
C1041       C  0.85851907  0.36822355  0.64264280     0.92900
Al1042     Al  0.89891831  0.42207457  0.59021537     1.55600
O1043       O  0.93955935  0.42250443  0.69549592    -0.78800
C1044       C  0.96254141  0.47859975  0.56173037     0.97100
C1045       C  0.91507767  0.37166341  0.57699245     0.92000
O1046       O  0.91625331  0.36779346  0.61034130    -0.84100
O1047       O  0.02190967  0.54374917  0.81563238    -0.83600
C1048       C  0.04541641  0.64149666  0.91811777     0.95800
O1049       O  0.01758572  0.61396550  0.91567467    -0.72700
O1050       O  0.99659050  0.60991150  0.85046277    -0.76300
Al1051     Al  0.00295437  0.57962843  0.87907173     1.49000
C1052       C  0.99522624  0.60784358  0.81705721     0.91000
O1053       O  0.07696556  0.63807157  0.81213800    -0.82500
O1054       O  0.09125633  0.57640395  0.87519834    -0.76100
Al1055     Al  0.04933914  0.59100595  0.81530506     1.90100
O1056       O  0.11110868  0.64332822  0.85619876    -0.75100
O1057       O  0.05565257  0.57983496  0.93096908    -0.75000
O1058       O  0.07246369  0.64385662  0.90670897    -0.80600
O1059       O  0.00453071  0.54816553  0.90947907    -0.78800
O1060       O  0.04402745  0.59322937  0.86175513    -1.15000
O1061       O  0.97962117  0.54249986  0.84538234    -0.74200
C1062       C  0.99096605  0.52892403  0.82404485     0.96500
C1063       C  0.10414637  0.65559045  0.82918769     0.92900
Al1064     Al  0.07986183  0.60942743  0.89025511     1.55600
O1065       O  0.01180684  0.59672707  0.80051506    -0.78800
C1066       C  0.02595364  0.55435009  0.93361530     0.97100
C1067       C  0.09746213  0.57264388  0.84313720     0.92000
O1068       O  0.08771387  0.58426347  0.81812575    -0.84100
O1069       O  0.73346653  0.69869791  0.97434571    -0.83600
C1070       C  0.87425368  0.76988262  0.95175471     0.95800
O1071       O  0.85608721  0.73804999  0.95290190    -0.72700
O1072       O  0.82466133  0.72959353  0.51373991    -0.76300
Al1073     Al  0.80962935  0.71108483  0.96765663     1.49000
C1074       C  0.80597798  0.73169030  0.53722326     0.91000
O1075       O  0.79657626  0.78937744  0.99602359    -0.82500
O1076       O  0.77655794  0.75452782  0.89745729    -0.76100
Al1077     Al  0.76673797  0.74406450  0.98354370     1.90100
O1078       O  0.81496755  0.80743401  0.94214770    -0.75100
O1079       O  0.82375999  0.73817308  0.89261905    -0.75000
O1080       O  0.86125217  0.78776488  0.94394240    -0.80600
O1081       O  0.79603503  0.69029059  0.92192830    -0.78800
O1082       O  0.79777007  0.74149085  0.95755171    -1.15000
O1083       O  0.76618218  0.67767393  0.98605388    -0.74200
C1084       C  0.73715696  0.67488800  0.98568101     0.96500
C1085       C  0.80770487  0.81261402  0.97327695     0.92900
Al1086     Al  0.81788301  0.76987699  0.92182748     1.55600
O1087       O  0.77974958  0.73289428  0.52857341    -0.78800
C1088       C  0.80891417  0.70610011  0.89322604     0.97100
C1089       C  0.75178396  0.75596365  0.91037562     0.92000
O1090       O  0.74779086  0.75627165  0.94387951    -0.84100
O1091       O  0.81660050  0.64734284  0.64753670    -0.83600
C1092       C  0.88998055  0.62276333  0.75062448     0.95800
O1093       O  0.89085727  0.65069515  0.74751652    -0.72700
O1094       O  0.90806862  0.67054669  0.68182744    -0.76300
Al1095     Al  0.87171822  0.66544962  0.71049188     1.49000
C1096       C  0.90726714  0.67186785  0.64840833     0.91000
O1097       O  0.85417935  0.59082332  0.64382967    -0.82500
O1098       O  0.77909824  0.57812424  0.70753928    -0.76100
Al1099     Al  0.83565684  0.61917630  0.64713785     1.90100
O1100       O  0.82543362  0.55747576  0.68852614    -0.75100
O1101       O  0.81850202  0.61398519  0.76275227    -0.75000
O1102       O  0.86525201  0.59600416  0.73888393    -0.80600
O1103       O  0.83891465  0.66486336  0.74076448    -0.78800
O1104       O  0.84348807  0.62458506  0.69353462    -1.15000
O1105       O  0.85874134  0.68913323  0.67653713    -0.74200
C1106       C  0.83359829  0.67823750  0.65549899     0.96500
C1107       C  0.84412462  0.56378004  0.66105704     0.92900
Al1108     Al  0.82346664  0.58916849  0.72236894     1.55600
O1109       O  0.87933846  0.65583712  0.63204083    -0.78800
C1110       C  0.82330743  0.64381315  0.76508807     0.97100
C1111       C  0.76903175  0.57137671  0.67559522     0.92000
O1112       O  0.79027917  0.58157895  0.65036416    -0.84100
O1113       O  0.79334456  0.18493927  0.64976532    -0.83600
C1114       C  0.69521859  0.10931701  0.75172862     0.95800
O1115       O  0.72287245  0.10929161  0.74907180    -0.72700
O1116       O  0.72614365  0.09303842  0.68329353    -0.76300
Al1117     Al  0.75703755  0.12926230  0.71214638     1.49000
C1118       C  0.72786599  0.09411777  0.64985702     0.91000
O1119       O  0.69891330  0.14608312  0.64645045    -0.82500
O1120       O  0.76096063  0.22064199  0.71085994    -0.76100
Al1121     Al  0.74597421  0.16522455  0.64951618     1.90100
O1122       O  0.69405985  0.17445965  0.69130811    -0.75100
O1123       O  0.75698475  0.18063882  0.76519682    -0.75000
O1124       O  0.69274757  0.13388004  0.74054575    -0.80600
O1125       O  0.78890515  0.16204587  0.74259077    -0.78800
O1126       O  0.74363757  0.15695321  0.69572811    -1.15000
O1127       O  0.79407377  0.14323344  0.67805993    -0.74200
C1128       C  0.80794838  0.16858091  0.65733620     0.96500
C1129       C  0.68178894  0.15591010  0.66384775     0.92900
Al1130     Al  0.72756762  0.17607387  0.72494747     1.55600
O1131       O  0.73956505  0.12206189  0.63377329    -0.78800
C1132       C  0.78268094  0.17681761  0.76717810     0.97100
C1133       C  0.76461039  0.23113066  0.67905287     0.92000
O1134       O  0.75318073  0.21026656  0.65353460    -0.84100
O1135       O  0.92736962  0.26792594  0.97285611    -0.83600
C1136       C  0.85743911  0.12697633  0.95388149     0.95800
O1137       O  0.84373678  0.14509354  0.95522007    -0.72700
O1138       O  0.86785777  0.17784015  0.51530068    -0.76300
Al1139     Al  0.86359749  0.19174875  0.96914163     1.49000
C1140       C  0.88881118  0.19730735  0.53821312     0.91000
O1141       O  0.95504281  0.20579755  0.99715027    -0.82500
O1142       O  0.93993541  0.22281069  0.89778148    -0.76100
Al1143     Al  0.93974328  0.23512735  0.98342876     1.90100
O1144       O  0.95447976  0.18540736  0.94428215    -0.75100
O1145       O  0.87618176  0.17645836  0.89429026    -0.75000
O1146       O  0.88845830  0.13990429  0.94631075    -0.80600
O1147       O  0.85601005  0.20440672  0.92340172    -0.78800
O1148       O  0.90588719  0.20340969  0.95846464    -1.15000
O1149       O  0.87391575  0.23554582  0.98686299    -0.74200
C1150       C  0.90024787  0.26450260  0.98553724     0.96500
C1151       C  0.96663090  0.19320855  0.97552070     0.92900
Al1152     Al  0.91394885  0.18248567  0.92339117     1.55600
O1153       O  0.91590817  0.22360156  0.52874183    -0.78800
C1154       C  0.85896243  0.19134522  0.89487207     0.97100
C1155       C  0.96625840  0.24789442  0.90988802     0.92000
O1156       O  0.97085172  0.25283171  0.94327175    -0.84100
O1157       O  0.06772287  0.36345956  0.80397954    -0.83600
C1158       C  0.20940143  0.43714530  0.78571731     0.95800
O1159       O  0.19139132  0.40535844  0.78706942    -0.72700
O1160       O  0.15808606  0.39638752  0.84716167    -0.76300
Al1161     Al  0.14469734  0.37811128  0.80090955     1.49000
C1162       C  0.13782482  0.39694474  0.86978162     0.91000
O1163       O  0.12807620  0.45435932  0.82873359    -0.82500
O1164       O  0.11307757  0.42271519  0.72929841    -0.76100
Al1165     Al  0.09979767  0.40916177  0.81476228     1.90100
O1166       O  0.14969993  0.47440668  0.77621301    -0.75100
O1167       O  0.15971112  0.40572034  0.72591920    -0.75000
O1168       O  0.19620158  0.45489523  0.77833426    -0.80600
O1169       O  0.13235813  0.35768717  0.75528137    -0.78800
O1170       O  0.13236163  0.40808898  0.79012073    -1.15000
O1171       O  0.10121133  0.34403720  0.81837274    -0.74200
C1172       C  0.07186306  0.34036086  0.81681046     0.96500
C1173       C  0.14050788  0.47843079  0.80693126     0.92900
Al1174     Al  0.15337841  0.43726377  0.75521697     1.55600
O1175       O  0.11136250  0.39719242  0.85999061    -0.78800
C1176       C  0.14504601  0.37360782  0.72662773     0.97100
C1177       C  0.08789611  0.42378081  0.74143123     0.92000
O1178       O  0.08208889  0.42198537  0.77468633    -0.84100
O1179       O  0.14772427  0.31207954  0.98091217    -0.83600
C1180       C  0.22530637  0.29280024  0.58266232     0.95800
O1181       O  0.22463441  0.31998281  0.58010147    -0.72700
O1182       O  0.24048231  0.33909994  0.51421953    -0.76300
Al1183     Al  0.20402924  0.33306651  0.54313217     1.49000
C1184       C  0.23940183  0.33931840  0.98066221     0.91000
O1185       O  0.18849469  0.25844487  0.97735307    -0.82500
O1186       O  0.11366799  0.24420140  0.54243727    -0.76100
Al1187     Al  0.16839712  0.28536975  0.98057113     1.90100
O1188       O  0.16098708  0.22545143  0.52268159    -0.75100
O1189       O  0.15350423  0.28132367  0.59654961    -0.75000
O1190       O  0.20116864  0.26541189  0.57141721    -0.80600
O1191       O  0.17079651  0.33132813  0.57354132    -0.78800
O1192       O  0.17687584  0.29176059  0.52682629    -1.15000
O1193       O  0.18940003  0.35508838  0.50916430    -0.74200
C1194       C  0.16390698  0.34308760  0.98848480     0.96500
C1195       C  0.17950484  0.23193885  0.49509208     0.92900
Al1196     Al  0.15856147  0.25676555  0.55621453     1.55600
O1197       O  0.21135764  0.32277291  0.96457332    -0.78800
C1198       C  0.15673741  0.31052998  0.59845328     0.97100
C1199       C  0.10301717  0.23670486  0.51075467     0.92000
O1200       O  0.12365993  0.24672072  0.98498406    -0.84100
O1201       O  0.25762462  0.93508146  0.80466645    -0.83600
C1202       C  0.18976052  0.79432703  0.78539747     0.95800
O1203       O  0.17584430  0.81224169  0.78556510    -0.72700
O1204       O  0.19929682  0.84433078  0.84606929    -0.76300
Al1205     Al  0.19518855  0.85860930  0.80015089     1.49000
C1206       C  0.21991061  0.86381278  0.86923867     0.91000
O1207       O  0.28780801  0.87483239  0.82902841    -0.82500
O1208       O  0.27263969  0.89083936  0.72960301    -0.76100
Al1209     Al  0.27114018  0.90306879  0.81518087     1.90100
O1210       O  0.28696530  0.85365955  0.77650454    -0.75100
O1211       O  0.20883733  0.84449455  0.72515702    -0.75000
O1212       O  0.22084572  0.80746034  0.77789651    -0.80600
O1213       O  0.18793580  0.87170943  0.75449624    -0.78800
O1214       O  0.23779967  0.87099948  0.78990514    -1.15000
O1215       O  0.20440675  0.90175891  0.81868523    -0.74200
C1216       C  0.23033331  0.93095376  0.81766526     0.96500
C1217       C  0.29943431  0.86214127  0.80757621     0.92900
Al1218     Al  0.24645158  0.85039071  0.75500024     1.55600
O1219       O  0.24677256  0.89055422  0.86017030    -0.78800
C1220       C  0.19139675  0.85921458  0.72577402     0.97100
C1221       C  0.29843866  0.91628836  0.74201575     0.92000
O1222       O  0.30240048  0.92152778  0.77537465    -0.84100
O1223       O  0.12557286  0.85315335  0.98103783    -0.83600
C1224       C  0.02761384  0.77786474  0.58328365     0.95800
O1225       O  0.05534664  0.77804998  0.58062796    -0.72700
O1226       O  0.05814224  0.76134483  0.51484446    -0.76300
Al1227     Al  0.08919211  0.79771676  0.54348520     1.49000
C1228       C  0.06018419  0.76222960  0.98151841     0.91000
O1229       O  0.03092487  0.81377584  0.97706998    -0.82500
O1230       O  0.09218423  0.88895963  0.54116016    -0.76100
Al1231     Al  0.07805364  0.83320976  0.98050143     1.90100
O1232       O  0.02545888  0.84169210  0.52194288    -0.75100
O1233       O  0.08941358  0.84968012  0.59590351    -0.75000
O1234       O  0.02488258  0.80214650  0.57174900    -0.80600
O1235       O  0.12125748  0.83078618  0.57368155    -0.78800
O1236       O  0.07573024  0.82524913  0.52669846    -1.15000
O1237       O  0.12594355  0.81123939  0.50943044    -0.74200
C1238       C  0.13987734  0.83650041  0.98867091     0.96500
C1239       C  0.01343297  0.82309883  0.49443844     0.92900
Al1240     Al  0.05940648  0.84430579  0.55566548     1.55600
O1241       O  0.07198469  0.79005356  0.96516659    -0.78800
C1242       C  0.11516239  0.84587647  0.59803865     0.97100
C1243       C  0.09574484  0.89914468  0.50925255     0.92000
O1244       O  0.08483157  0.87803894  0.98405602    -0.84100
O1245       O  0.40204606  0.03283828  0.63893015    -0.83600
C1246       C  0.54342945  0.10500215  0.62053388     0.95800
O1247       O  0.52497444  0.07322879  0.62151023    -0.72700
O1248       O  0.49220386  0.06404515  0.68155360    -0.76300
Al1249     Al  0.47846076  0.04615012  0.63517473     1.49000
C1250       C  0.47237354  0.06497289  0.70442674     0.91000
O1251       O  0.46372719  0.12302446  0.66360491    -0.82500
O1252       O  0.44698619  0.09099146  0.56401511    -0.76100
Al1253     Al  0.43463495  0.07810236  0.64973948     1.90100
O1254       O  0.48409369  0.14279610  0.61067017    -0.75100
O1255       O  0.49398305  0.07418080  0.56029960    -0.75000
O1256       O  0.53072095  0.12315611  0.61271210    -0.80600
O1257       O  0.46602763  0.02604062  0.58929977    -0.78800
O1258       O  0.46665585  0.07650909  0.62469307    -1.15000
O1259       O  0.43470560  0.01224441  0.65250877    -0.74200
C1260       C  0.40559174  0.00919528  0.65111271     0.96500
C1261       C  0.47538289  0.14688508  0.64160051     0.92900
Al1262     Al  0.48765882  0.10565028  0.58968035     1.55600
O1263       O  0.44610952  0.06573432  0.69490313    -0.78800
C1264       C  0.47917937  0.04206891  0.56079349     0.97100
C1265       C  0.42173707  0.09184375  0.57643611     0.92000
O1266       O  0.41678633  0.09107928  0.60982695    -0.84100
O1267       O  0.48269656  0.97969092  0.81528310    -0.83600
C1268       C  0.55760566  0.95779655  0.91815828     0.95800
O1269       O  0.55768273  0.98535206  0.91534848    -0.72700
O1270       O  0.57459185  0.00410757  0.84949438    -0.76300
Al1271     Al  0.53822666  0.99924850  0.87783361     1.49000
C1272       C  0.57377323  0.00465116  0.81604472     0.91000
O1273       O  0.52105570  0.92410854  0.81235329    -0.82500
O1274       O  0.44625006  0.91146589  0.87656483    -0.76100
Al1275     Al  0.50218685  0.95200799  0.81529373     1.90100
O1276       O  0.49285396  0.89107035  0.85740834    -0.75100
O1277       O  0.48639167  0.94838875  0.93098699    -0.75000
O1278       O  0.53314305  0.93069651  0.90671674    -0.80600
O1279       O  0.50520098  0.99857367  0.90769001    -0.78800
O1280       O  0.51031101  0.95808308  0.86152039    -1.15000
O1281       O  0.52487683  0.02223933  0.84328808    -0.74200
C1282       C  0.49938177  0.01070568  0.82265876     0.96500
C1283       C  0.51140822  0.89731155  0.82982761     0.92900
Al1284     Al  0.49095617  0.92307323  0.89088092     1.55600
O1285       O  0.54578440  0.98864313  0.79972982    -0.78800
C1286       C  0.49066263  0.97805419  0.93271931     0.97100
C1287       C  0.43590142  0.90453270  0.84470922     0.92000
O1288       O  0.45695013  0.91424927  0.81927956    -0.84100
O1289       O  0.35143377  0.20823162  0.64868325    -0.83600
C1290       C  0.37693708  0.30777665  0.74937176     0.95800
O1291       O  0.34906687  0.28025757  0.74761660    -0.72700
O1292       O  0.32830233  0.27610744  0.68238644    -0.76300
Al1293     Al  0.33389124  0.24568095  0.71135407     1.49000
C1294       C  0.32758458  0.27460487  0.64892925     0.91000
O1295       O  0.40818663  0.30219770  0.64302395    -0.82500
O1296       O  0.42164316  0.24157224  0.70811964    -0.76100
Al1297     Al  0.37971729  0.25538222  0.64743351     1.90100
O1298       O  0.44200797  0.30789295  0.68752155    -0.75100
O1299       O  0.38642571  0.24641359  0.76332423    -0.75000
O1300       O  0.40374053  0.30998473  0.73744022    -0.80600
O1301       O  0.33514094  0.21420668  0.74228629    -0.78800
O1302       O  0.37475761  0.25855434  0.69380380    -1.15000
O1303       O  0.30978320  0.20848070  0.67811708    -0.74200
C1304       C  0.32054159  0.19417376  0.65711354     0.96500
C1305       C  0.43547441  0.31967280  0.65985026     0.92900
Al1306     Al  0.41066806  0.27502417  0.72210724     1.55600
O1307       O  0.34309675  0.26224107  0.63252726    -0.78800
C1308       C  0.35677268  0.22093636  0.76639669     0.97100
C1309       C  0.42774839  0.23728644  0.67621079     0.92000
O1310       O  0.41732664  0.24774948  0.65075442    -0.84100
O1311       O  0.30318859  0.07667534  0.97449137    -0.83600
C1312       C  0.23165612  0.14565029  0.95343238     0.95800
O1313       O  0.26354282  0.15933767  0.95471433    -0.72700
O1314       O  0.27134708  0.13550438  0.51522949    -0.76300
Al1315     Al  0.29020846  0.13979071  0.96927972     1.49000
C1316       C  0.26925041  0.11450970  0.53830975     0.91000
O1317       O  0.21195116  0.04763062  0.99685788    -0.82500
O1318       O  0.24574080  0.06318516  0.89801103    -0.76100
Al1319     Al  0.25740924  0.06380323  0.98396461     1.90100
O1320       O  0.19318308  0.04886612  0.94362572    -0.75100
O1321       O  0.26331853  0.12695176  0.89389695    -0.75000
O1322       O  0.21357076  0.11478715  0.94559970    -0.80600
O1323       O  0.31130894  0.14780423  0.92366838    -0.78800
O1324       O  0.25975839  0.09747594  0.95854639    -1.15000
O1325       O  0.32370092  0.13000046  0.98768895    -0.74200
C1326       C  0.32675041  0.10405083  0.98676053     0.96500
C1327       C  0.18823647  0.03609426  0.97457177     0.92900
Al1328     Al  0.23109431  0.08930374  0.92307442     1.55600
O1329       O  0.26889516  0.08768058  0.52914567    -0.78800
C1330       C  0.29552113  0.14477122  0.89489675     0.97100
C1331       C  0.24456737  0.03708879  0.91049515     0.92000
O1332       O  0.24502475  0.03291599  0.94393163    -0.84100
C1333       C  0.31628252  0.16737091  0.79746740    -0.15100
C1334       C  0.34543606  0.19963168  0.79908755     0.07000
C1335       C  0.35989328  0.21256360  0.83266527    -0.15100
C1336       C  0.34452734  0.19420999  0.86396642    -0.15100
C1337       C  0.31429661  0.16278161  0.86218427     0.07000
C1338       C  0.30086931  0.14930370  0.82855577    -0.15100
H1339       H  0.30453372  0.15658898  0.77207323     0.11000
H1340       H  0.38201953  0.23753857  0.83485267     0.11000
H1341       H  0.35535184  0.20525350  0.88958345     0.11000
H1342       H  0.27787678  0.12497284  0.82631546     0.11000
C1343       C  0.27082427  0.16391482  0.61815413    -0.15100
C1344       C  0.29698151  0.16363145  0.63745192     0.07000
C1345       C  0.30675669  0.13988967  0.62883546    -0.15100
C1346       C  0.29361075  0.11968128  0.59852231    -0.15100
C1347       C  0.27148309  0.12395303  0.57606890     0.07000
C1348       C  0.25847277  0.14449922  0.58723113    -0.15100
H1349       H  0.26328678  0.18238253  0.62410121     0.11000
H1350       H  0.32712959  0.13955514  0.64331131     0.11000
H1351       H  0.30399475  0.10401212  0.59034471     0.11000
H1352       H  0.24130000  0.14802904  0.57024041     0.11000
C1353       C  0.46847244  0.18324372  0.68653083    -0.15100
C1354       C  0.47294495  0.17701370  0.65072115     0.07000
C1355       C  0.46659623  0.19430541  0.62372375    -0.15100
C1356       C  0.45338834  0.21518983  0.63222261    -0.15100
C1357       C  0.44647702  0.21939266  0.66790790     0.07000
C1358       C  0.45545218  0.20428266  0.69505412    -0.15100
H1359       H  0.47292562  0.17004017  0.70791436     0.11000
H1360       H  0.46915050  0.18954033  0.59591034     0.11000
H1361       H  0.44698127  0.22668052  0.61062377     0.11000
H1362       H  0.45070536  0.20721416  0.72276265     0.11000
C1363       C  0.36721471  0.08277871  0.49645630    -0.15100
C1364       C  0.35504968  0.10442523  0.50606818     0.07000
C1365       C  0.36571415  0.12231742  0.03824937    -0.15100
C1366       C  0.38714453  0.11787976  0.56124992    -0.15100
C1367       C  0.39899530  0.09599572  0.55193114     0.07000
C1368       C  0.38972270  0.07918091  0.51893868    -0.15100
H1369       H  0.35880982  0.06826035  0.47201752     0.11000
H1370       H  0.35616035  0.13866015  0.04660622     0.11000
H1371       H  0.39443470  0.13146954  0.58633073     0.11000
H1372       H  0.39890379  0.06237428  0.51122605     0.11000
C1373       C  0.48377795  0.03947771  0.99462278    -0.15100
C1374       C  0.47816666  0.02350233  0.52788532     0.07000
C1375       C  0.47266825  0.99035350  0.52919636    -0.15100
C1376       C  0.47458901  0.97430541  0.99792484    -0.15100
C1377       C  0.48177593  0.99104187  0.96491590     0.07000
C1378       C  0.48532088  0.02342229  0.96364156    -0.15100
H1379       H  0.48762442  0.06477297  0.99261981     0.11000
H1380       H  0.46818898  0.97739645  0.55448593     0.11000
H1381       H  0.47201383  0.94952626  0.99988837     0.11000
H1382       H  0.49070534  0.03711518  0.93871898     0.11000
C1383       C  0.45110963  0.03556594  0.76199817    -0.15100
C1384       C  0.47802494  0.06059688  0.74208769     0.07000
C1385       C  0.51123093  0.07493947  0.75523881    -0.15100
C1386       C  0.51784313  0.06171239  0.78575303    -0.15100
C1387       C  0.49140211  0.03334199  0.80256850     0.07000
C1388       C  0.45780571  0.02166441  0.79184623    -0.15100
H1389       H  0.42533994  0.02400308  0.75213233     0.11000
H1390       H  0.53230276  0.09423847  0.74011083     0.11000
H1391       H  0.54395111  0.07085668  0.79333972     0.11000
H1392       H  0.43707598  0.99965616  0.80438110     0.11000
C1393       C  0.12767965  0.96013245  0.52784627    -0.15100
C1394       C  0.11335325  0.93573427  0.50076946     0.07000
C1395       C  0.11830046  0.94644916  0.96509747    -0.15100
C1396       C  0.13991372  0.98039154  0.95646065    -0.15100
C1397       C  0.15694760  0.00422645  0.98345010     0.07000
C1398       C  0.14923520  0.99405525  0.01929233    -0.15100
H1399       H  0.12380353  0.95273674  0.55563235     0.11000
H1400       H  0.10733685  0.92833660  0.94354544     0.11000
H1401       H  0.14566348  0.98734080  0.92866372     0.11000
H1402       H  0.16206688  0.01195360  0.04067167     0.11000
C1403       C  0.34109178  0.86729647  0.85384641    -0.15100
C1404       C  0.33088287  0.86244086  0.81784472     0.07000
C1405       C  0.35441917  0.86624593  0.79152917    -0.15100
C1406       C  0.38825547  0.87800005  0.80066642    -0.15100
C1407       C  0.39916953  0.88598847  0.83631221     0.07000
C1408       C  0.37490796  0.87892176  0.86301159    -0.15100
H1409       H  0.32343856  0.86451987  0.87475841     0.11000
H1410       H  0.34744054  0.86305950  0.76360371     0.11000
H1411       H  0.40626254  0.88275363  0.77945157     0.11000
H1412       H  0.38239894  0.88441063  0.89071030     0.11000
C1413       C  0.31761454  0.95179504  0.68712749    -0.15100
C1414       C  0.32519837  0.93870679  0.71728269     0.07000
C1415       C  0.35840641  0.94556810  0.72279178    -0.15100
C1416       C  0.38402879  0.96609755  0.69897322    -0.15100
C1417       C  0.37704933  0.98098943  0.66987463     0.07000
C1418       C  0.34352467  0.97337175  0.66389370    -0.15100
H1419       H  0.29189829  0.94624558  0.68230879     0.11000
H1420       H  0.36448323  0.93503310  0.74555989     0.11000
H1421       H  0.40971417  0.97196230  0.70462483     0.11000
H1422       H  0.33759355  0.98488130  0.64194899     0.11000
C1423       C  0.25745248  0.01830889  0.85283615    -0.15100
C1424       C  0.24039822  0.01032360  0.88575524     0.07000
C1425       C  0.21769510  0.97648550  0.89415790    -0.15100
C1426       C  0.21239643  0.95093253  0.87023342    -0.15100
C1427       C  0.23059629  0.95865043  0.83800528     0.07000
C1428       C  0.25315957  0.99257309  0.82945182    -0.15100
H1429       H  0.27482680  0.04435113  0.84576890     0.11000
H1430       H  0.20383255  0.96983471  0.91915215     0.11000
H1431       H  0.19533672  0.92495727  0.87780535     0.11000
H1432       H  0.26788104  0.99907472  0.80505102     0.11000
C1433       C  0.18620861  0.85814167  0.65930956    -0.15100
C1434       C  0.17406061  0.86067008  0.69286614     0.07000
C1435       C  0.14451622  0.86315321  0.69457328    -0.15100
C1436       C  0.12622660  0.86072375  0.66345360    -0.15100
C1437       C  0.13739044  0.85613300  0.63007402     0.07000
C1438       C  0.16826955  0.85613780  0.62834583    -0.15100
H1439       H  0.20922324  0.85684898  0.65705272     0.11000
H1440       H  0.13465280  0.86529534  0.72011895     0.11000
H1441       H  0.10247437  0.86057726  0.66574342     0.11000
H1442       H  0.17784362  0.85296408  0.60305395     0.11000
C1443       C  0.21425788  0.88364224  0.92891891    -0.15100
C1444       C  0.20987615  0.85699263  0.90685965     0.07000
C1445       C  0.18891345  0.82356661  0.91822749    -0.15100
C1446       C  0.16951492  0.81686749  0.94914570    -0.15100
C1447       C  0.17005488  0.84350865  0.96814510     0.07000
C1448       C  0.19389385  0.87693214  0.95910901    -0.15100
H1449       H  0.23029670  0.90960490  0.92059163     0.11000
H1450       H  0.18525402  0.80266591  0.90153278     0.11000
H1451       H  0.15104350  0.79092621  0.95551776     0.11000
H1452       H  0.19443138  0.89778450  0.97336103     0.11000
C1453       C  0.22019267  0.22115167  0.96145131    -0.15100
C1454       C  0.19121974  0.20870719  0.98316512     0.07000
C1455       C  0.17457611  0.17476675  0.49372531    -0.15100
C1456       C  0.18677752  0.15358761  0.48263182    -0.15100
C1457       C  0.21618724  0.16634148  0.96160562     0.07000
C1458       C  0.23276824  0.20028691  0.95115957    -0.15100
H1459       H  0.23372910  0.24734409  0.95316598     0.11000
H1460       H  0.15221309  0.16460494  0.51045912     0.11000
H1461       H  0.17396832  0.12755071  0.49141706     0.11000
H1462       H  0.25566973  0.21074178  0.93521670     0.11000
C1463       C  0.26659453  0.27305301  0.58089193    -0.15100
C1464       C  0.25470105  0.29247623  0.59778307     0.07000
C1465       C  0.26978829  0.30946114  0.62954383    -0.15100
C1466       C  0.29497387  0.30504029  0.64555399    -0.15100
C1467       C  0.30582885  0.28431076  0.62941501     0.07000
C1468       C  0.29224070  0.26930923  0.59635756    -0.15100
H1469       H  0.25539213  0.26007177  0.55606972     0.11000
H1470       H  0.26089103  0.32458805  0.64280602     0.11000
H1471       H  0.30514912  0.31686905  0.67109899     0.11000
H1472       H  0.29997597  0.25305882  0.58349662     0.11000
C1473       C  0.14014215  0.32255003  0.69525586    -0.15100
C1474       C  0.14359804  0.35488338  0.69377205     0.07000
C1475       C  0.14675755  0.36990373  0.66039823    -0.15100
C1476       C  0.14824734  0.35392962  0.62933681    -0.15100
C1477       C  0.14717962  0.32267333  0.63076130     0.07000
C1478       C  0.14212545  0.30663808  0.66398374    -0.15100
H1479       H  0.13746607  0.31028751  0.72069759     0.11000
H1480       H  0.14880235  0.39446086  0.65832980     0.11000
H1481       H  0.15182194  0.36693175  0.60419977     0.11000
H1482       H  0.14143290  0.28270307  0.66600931     0.11000
C1483       C  0.17640678  0.40674520  0.92058440    -0.15100
C1484       C  0.14325615  0.39279138  0.90751035     0.07000
C1485       C  0.11609518  0.36837358  0.92771723    -0.15100
C1486       C  0.12248261  0.35431563  0.95763847    -0.15100
C1487       C  0.15600102  0.36561034  0.96827530     0.07000
C1488       C  0.18269857  0.39361792  0.95128798    -0.15100
H1489       H  0.19764901  0.42562794  0.90528566     0.11000
H1490       H  0.09031718  0.35737918  0.91807407     0.11000
H1491       H  0.10157614  0.33259300  0.97037031     0.11000
H1492       H  0.20874181  0.40243572  0.95886175     0.11000
C1493       C  0.00875331  0.19962488  0.52145230    -0.15100
C1494       C  0.99777904  0.19304163  0.98585191     0.07000
C1495       C  0.02048008  0.19468105  0.95957525    -0.15100
C1496       C  0.05448905  0.20673673  0.96820446    -0.15100
C1497       C  0.06626027  0.21714778  0.50316975     0.07000
C1498       C  0.04267640  0.21169939  0.53008038    -0.15100
H1499       H  0.99169957  0.19828278  0.54238132     0.11000
H1500       H  0.01279477  0.18971114  0.93188977     0.11000
H1501       H  0.07200449  0.20997459  0.94696346     0.11000
H1502       H  0.05080391  0.21899313  0.55737916     0.11000
C1503       C  0.02667381  0.28082203  0.89220556    -0.15100
C1504       C  0.99273981  0.27026834  0.88472726     0.07000
C1505       C  0.98435447  0.27971675  0.85234858    -0.15100
C1506       C  0.00994633  0.30134856  0.82877932    -0.15100
C1507       C  0.04403731  0.31242365  0.83663277     0.07000
C1508       C  0.05200418  0.30112374  0.86803642    -0.15100
H1509       H  0.03355631  0.27319692  0.91667670     0.11000
H1510       H  0.95813356  0.27132781  0.84595445     0.11000
H1511       H  0.00325382  0.31003522  0.80496568     0.11000
H1512       H  0.07812344  0.30959142  0.87498098     0.11000
C1513       C  0.63244195  0.16517259  0.65406906    -0.15100
C1514       C  0.64692996  0.14445250  0.65200927     0.07000
C1515       C  0.62785322  0.11179840  0.63797483    -0.15100
C1516       C  0.59462193  0.09961327  0.62694433    -0.15100
C1517       C  0.57976693  0.11998283  0.62909565     0.07000
C1518       C  0.59909381  0.15311762  0.64223974    -0.15100
H1519       H  0.64690559  0.19055547  0.66460566     0.11000
H1520       H  0.63846205  0.09531425  0.63627684     0.11000
H1521       H  0.58038102  0.07397536  0.61701768     0.11000
H1522       H  0.58808618  0.16920392  0.64443375     0.11000
C1523       C  0.66676569  0.06107346  0.79491151    -0.15100
C1524       C  0.66480818  0.08012170  0.76670342     0.07000
C1525       C  0.63297367  0.07146301  0.75249559    -0.15100
C1526       C  0.60342673  0.04502876  0.76700647    -0.15100
C1527       C  0.60511462  0.02728672  0.79658825     0.07000
C1528       C  0.63699026  0.03513336  0.81019688    -0.15100
H1529       H  0.69108462  0.06720906  0.80604376     0.11000
H1530       H  0.63092255  0.08551247  0.73032752     0.11000
H1531       H  0.57918054  0.03976339  0.75639361     0.11000
H1532       H  0.63877338  0.02179731  0.83320448     0.11000
C1533       C  0.79441464  0.19331597  0.83215836    -0.15100
C1534       C  0.80476351  0.18685151  0.79919228     0.07000
C1535       C  0.83479916  0.18528672  0.79782346    -0.15100
C1536       C  0.85275775  0.18776545  0.82879673    -0.15100
C1537       C  0.84150452  0.19233858  0.86200513     0.07000
C1538       C  0.81277615  0.19621769  0.86334382    -0.15100
H1539       H  0.77130735  0.19445412  0.83411291     0.11000
H1540       H  0.84374378  0.18064054  0.77286625     0.11000
H1541       H  0.87512125  0.18528569  0.82682478     0.11000
H1542       H  0.80363312  0.19990557  0.88865475     0.11000
C1543       C  0.84000637  0.15050440  0.61909605    -0.15100
C1544       C  0.83869185  0.17664876  0.63714383     0.07000
C1545       C  0.86106428  0.21027772  0.62722968    -0.15100
C1546       C  0.88155963  0.21741838  0.59706621    -0.15100
C1547       C  0.87897214  0.19094097  0.57596129     0.07000
C1548       C  0.85964408  0.15758120  0.58824450    -0.15100
H1549       H  0.82263816  0.12438660  0.62601837     0.11000
H1550       H  0.86020584  0.23077946  0.64069592     0.11000
H1551       H  0.89627046  0.24331368  0.58800802     0.11000
H1552       H  0.85734551  0.13682690  0.57224029     0.11000
C1553       C  0.97053478  0.70417070  0.64283404    -0.15100
C1554       C  0.93843838  0.69530971  0.62907001     0.07000
C1555       C  0.93623425  0.71252052  0.59923217    -0.15100
C1556       C  0.96544856  0.73925098  0.58449263    -0.15100
C1557       C  0.99748061  0.74872352  0.59872748     0.07000
C1558       C  0.99996755  0.73037645  0.62732635    -0.15100
H1559       H  0.97274957  0.69132320  0.66601693     0.11000
H1560       H  0.91178959  0.70647993  0.58844162     0.11000
H1561       H  0.96300311  0.75278039  0.56206042     0.11000
H1562       H  0.02447419  0.73718889  0.63851737     0.11000
C1563       C  0.92795320  0.81653875  0.97821900    -0.15100
C1564       C  0.91063873  0.78551372  0.96010190     0.07000
C1565       C  0.92753922  0.76771498  0.95275349    -0.15100
C1566       C  0.96104334  0.78049970  0.96338714    -0.15100
C1567       C  0.97822199  0.81101703  0.98237573     0.07000
C1568       C  0.96178482  0.82939893  0.48933537    -0.15100
H1569       H  0.91567562  0.83104329  0.48383941     0.11000
H1570       H  0.91468203  0.74366749  0.93900412     0.11000
H1571       H  0.97326324  0.76595753  0.95756321     0.11000
H1572       H  0.97470191  0.85323050  0.50344859     0.11000
C1573       C  0.81488996  0.70425728  0.82722837    -0.15100
C1574       C  0.80791594  0.68761374  0.86017210     0.07000
C1575       C  0.80177626  0.65421877  0.86101749    -0.15100
C1576       C  0.80471144  0.63871700  0.82977563    -0.15100
C1577       C  0.81348934  0.65625412  0.79715556     0.07000
C1578       C  0.81743729  0.68879801  0.79624452    -0.15100
H1579       H  0.81922640  0.72974755  0.82546170     0.11000
H1580       H  0.79618730  0.64066904  0.88603659     0.11000
H1581       H  0.80166253  0.61373037  0.83146947     0.11000
H1582       H  0.82394174  0.70309844  0.77165188     0.11000
C1583       C  0.84659107  0.74091087  0.58596476    -0.15100
C1584       C  0.81299188  0.72834971  0.57475656     0.07000
C1585       C  0.78629351  0.70567217  0.59668265    -0.15100
C1586       C  0.79311664  0.69193694  0.62661325    -0.15100
C1587       C  0.82669437  0.70160325  0.63543406     0.07000
C1588       C  0.85340863  0.72796020  0.61654481    -0.15100
H1589       H  0.86752056  0.75838531  0.56931131     0.11000
H1590       H  0.76020672  0.69546582  0.58834475     0.11000
H1591       H  0.77219619  0.67141042  0.64073453     0.11000
H1592       H  0.87947201  0.73544326  0.62264824     0.11000
C1593       C  0.16191008  0.70820035  0.82566494    -0.15100
C1594       C  0.12719764  0.69071356  0.81721221     0.07000
C1595       C  0.11387244  0.70726001  0.79708868    -0.15100
C1596       C  0.13448057  0.74063375  0.78621934    -0.15100
C1597       C  0.16912226  0.75813860  0.79447098     0.07000
C1598       C  0.18283291  0.74157470  0.81396099    -0.15100
H1599       H  0.17281614  0.69607811  0.84118065     0.11000
H1600       H  0.08718063  0.69460616  0.79038910     0.11000
H1601       H  0.12324715  0.75288858  0.77145430     0.11000
H1602       H  0.20942180  0.75479995  0.82112120     0.11000
C1603       C  0.02427181  0.66984042  0.95987258    -0.15100
C1604       C  0.04674539  0.67189429  0.93309072     0.07000
C1605       C  0.07106766  0.70374604  0.91997024    -0.15100
C1606       C  0.07361212  0.73310122  0.93406427    -0.15100
C1607       C  0.05251961  0.73121479  0.96223425     0.07000
C1608       C  0.02756447  0.69939028  0.97483129    -0.15100
H1609       H  0.00515159  0.64554155  0.97012778     0.11000
H1610       H  0.08832373  0.70595396  0.89886143     0.11000
H1611       H  0.09325812  0.75734139  0.92418806     0.11000
H1612       H  0.01116898  0.69746356  0.99673233     0.11000
C1613       C  0.12055142  0.54846647  0.79826738    -0.15100
C1614       C  0.11520194  0.55376440  0.83416698     0.07000
C1615       C  0.12437056  0.53846082  0.86097567    -0.15100
C1616       C  0.13598679  0.51628800  0.85204168    -0.15100
C1617       C  0.13896621  0.50912202  0.81613060     0.07000
C1618       C  0.13241637  0.52648794  0.78935550    -0.15100
H1619       H  0.11387391  0.55993406  0.77687596     0.11000
H1620       H  0.12082204  0.54215005  0.88883021     0.11000
H1621       H  0.14063712  0.50308858  0.87327451     0.11000
H1622       H  0.13380431  0.52102976  0.76148674     0.11000
C1623       C  0.95322872  0.59462733  0.76883418    -0.15100
C1624       C  0.97133849  0.61496064  0.79789186     0.07000
C1625       C  0.96332077  0.63894874  0.81086434    -0.15100
C1626       C  0.93740313  0.64239002  0.79500504    -0.15100
C1627       C  0.91842511  0.62100133  0.76689111     0.07000
C1628       C  0.92674774  0.59731618  0.75379444    -0.15100
H1629       H  0.95855234  0.57558731  0.75876423     0.11000
H1630       H  0.97681081  0.65466689  0.83352113     0.11000
H1631       H  0.93144181  0.66087073  0.80541032     0.11000
H1632       H  0.91267637  0.58078676  0.73183864     0.11000
C1633       C  0.80735801  0.31305487  0.62667710    -0.15100
C1634       C  0.82785746  0.33615851  0.65292297     0.07000
C1635       C  0.82352969  0.32532882  0.68869995    -0.15100
C1636       C  0.80141269  0.29155308  0.69761761    -0.15100
C1637       C  0.78315247  0.26780905  0.67092719     0.07000
C1638       C  0.78527360  0.27919815  0.63559184    -0.15100
H1639       H  0.81033223  0.32046341  0.59890821     0.11000
H1640       H  0.83899906  0.34253776  0.70960255     0.11000
H1641       H  0.80017629  0.28370699  0.72506908     0.11000
H1642       H  0.77122154  0.26156773  0.61440299     0.11000
C1643       C  0.88746182  0.31133937  0.56033678    -0.15100
C1644       C  0.91123223  0.34495838  0.55239555     0.07000
C1645       C  0.92948523  0.35261240  0.52023613    -0.15100
C1646       C  0.92512794  0.32658982  0.49717294    -0.15100
C1647       C  0.90130899  0.29283521  0.50525998     0.07000
C1648       C  0.88208708  0.28561506  0.53670036    -0.15100
H1649       H  0.87275402  0.30500392  0.58475352     0.11000
H1650       H  0.94774525  0.37852996  0.51357130     0.11000
H1651       H  0.94034280  0.33265857  0.97322932     0.11000
H1652       H  0.86405335  0.25980558  0.54397280     0.11000
C1653       C  0.89973794  0.53300380  0.62149571    -0.15100
C1654       C  0.88109295  0.49809834  0.62767098     0.07000
C1655       C  0.84896503  0.48422476  0.64381870    -0.15100
C1656       C  0.83645969  0.50531055  0.65487881    -0.15100
C1657       C  0.85558998  0.54034249  0.64904981     0.07000
C1658       C  0.88702944  0.55376286  0.63170235    -0.15100
H1659       H  0.92455747  0.54441876  0.60915612     0.11000
H1660       H  0.83423162  0.45739831  0.64915354     0.11000
H1661       H  0.81204735  0.49435044  0.66803493     0.11000
H1662       H  0.90241563  0.58065955  0.62697253     0.11000
C1663       C  0.03730490  0.41998242  0.66016885    -0.15100
C1664       C  0.02539999  0.44167316  0.67046876     0.07000
C1665       C  0.03571939  0.45867674  0.70327259    -0.15100
C1666       C  0.05568144  0.45234249  0.72649947    -0.15100
C1667       C  0.06661424  0.42981105  0.71675792     0.07000
C1668       C  0.05844325  0.41464729  0.68292097    -0.15100
H1669       H  0.02930036  0.40634366  0.63517120     0.11000
H1670       H  0.02647347  0.47516152  0.71203508     0.11000
H1671       H  0.06247185  0.46492205  0.75216275     0.11000
H1672       H  0.06722141  0.39761854  0.67478427     0.11000
C1673       C  0.98285703  0.50182040  0.96433595    -0.15100
C1674       C  0.01400123  0.53242092  0.96588286     0.07000
C1675       C  0.02986721  0.54351841  0.99923173    -0.15100
C1676       C  0.01386835  0.52533449  0.53041464    -0.15100
C1677       C  0.98153372  0.49606966  0.52884783     0.07000
C1678       C  0.96678317  0.48403427  0.49533360    -0.15100
H1679       H  0.97000213  0.49226095  0.93912163     0.11000
H1680       H  0.05371149  0.56705556  0.00140671     0.11000
H1681       H  0.02601424  0.53508358  0.55590167     0.11000
H1682       H  0.94228598  0.46121932  0.49311338     0.11000
C1683       C  0.96536851  0.45521941  0.76422367    -0.15100
C1684       C  0.94176002  0.45822872  0.74292811     0.07000
C1685       C  0.92793628  0.47776137  0.75515493    -0.15100
C1686       C  0.94062420  0.49730667  0.78597936    -0.15100
C1687       C  0.96796440  0.49827157  0.80410003     0.07000
C1688       C  0.97886975  0.47563202  0.79435941    -0.15100
H1689       H  0.97637364  0.44031437  0.75528040     0.11000
H1690       H  0.90963098  0.48033661  0.73909872     0.11000
H1691       H  0.93212812  0.51485949  0.79281435     0.11000
H1692       H  0.00013351  0.47622220  0.80790187     0.11000
C1693       C  0.78186312  0.03939899  0.96043182    -0.15100
C1694       C  0.79437333  0.02279572  0.98170511     0.07000
C1695       C  0.82857815  0.04025555  0.49215430    -0.15100
C1696       C  0.84977497  0.07387320  0.98149997    -0.15100
C1697       C  0.83670040  0.09064814  0.96143006     0.07000
C1698       C  0.80269162  0.07307476  0.95080047    -0.15100
H1699       H  0.75556711  0.02667557  0.95217372     0.11000
H1700       H  0.83883031  0.02804271  0.50854294     0.11000
H1701       H  0.87588206  0.08721012  0.49046663     0.11000
H1702       H  0.79212308  0.08555119  0.93530367     0.11000
C1703       C  0.73943955  0.06537570  0.60041300    -0.15100
C1704       C  0.71973265  0.06317305  0.63009546     0.07000
C1705       C  0.69570253  0.03118555  0.64327150    -0.15100
C1706       C  0.69199558  0.00182169  0.62735129    -0.15100
C1707       C  0.71312652  0.00424453  0.59891957     0.07000
C1708       C  0.73645031  0.03621168  0.58525058    -0.15100
H1709       H  0.75844279  0.08971830  0.59011615     0.11000
H1710       H  0.68038294  0.02898405  0.66633471     0.11000
H1711       H  0.67373081  0.97740995  0.63812497     0.11000
H1712       H  0.75270525  0.03866151  0.56296756     0.11000
C1713       C  0.78611390  0.88101413  0.96351005    -0.15100
C1714       C  0.78203854  0.88741785  0.49953382     0.07000
C1715       C  0.79278769  0.87367799  0.52649872    -0.15100
C1716       C  0.80494571  0.85195227  0.51780054    -0.15100
C1717       C  0.80638252  0.84340546  0.98182462     0.07000
C1718       C  0.79836560  0.85940307  0.95480979    -0.15100
H1719       H  0.77816910  0.89130823  0.94204808     0.11000
H1720       H  0.78999640  0.87814227  0.55433020     0.11000
H1721       H  0.81071835  0.83973217  0.53917742     0.11000
H1722       H  0.79875718  0.85299504  0.92705743     0.11000
C1723       C  0.62363342  0.93291963  0.93225254    -0.15100
C1724       C  0.63934397  0.95017017  0.96374021     0.07000
C1725       C  0.62940823  0.97186948  0.97926284    -0.15100
C1726       C  0.60353345  0.97560654  0.96385242    -0.15100
C1727       C  0.58669025  0.95683171  0.93347315     0.07000
C1728       C  0.59726143  0.93591140  0.91751599    -0.15100
H1729       H  0.63049018  0.91571847  0.92007540     0.11000
H1730       H  0.64063301  0.98479093  0.50417077     0.11000
H1731       H  0.59573330  0.99192295  0.97641393     0.11000
H1732       H  0.58476827  0.92151308  0.89376731     0.11000
C1733       C  0.56597967  0.86671367  0.78722421    -0.15100
C1734       C  0.54817514  0.83206666  0.79470707     0.07000
C1735       C  0.51717404  0.81830221  0.81318434    -0.15100
C1736       C  0.50484399  0.83927763  0.82500658    -0.15100
C1737       C  0.52299496  0.87405344  0.81765111     0.07000
C1738       C  0.55339011  0.88735908  0.79820527    -0.15100
H1739       H  0.58996797  0.87796306  0.77314920     0.11000
H1740       H  0.50322505  0.79166269  0.81961715     0.11000
H1741       H  0.48128678  0.82841601  0.83982457     0.11000
H1742       H  0.56804273  0.91408731  0.79225945     0.11000
C1743       C  0.69803600  0.74718175  0.83004895    -0.15100
C1744       C  0.68790069  0.77076215  0.83812218     0.07000
C1745       C  0.69894788  0.78923810  0.87006355    -0.15100
C1746       C  0.71877671  0.78345638  0.89408928    -0.15100
C1747       C  0.72890114  0.75995649  0.88602037     0.07000
C1748       C  0.71902137  0.74232918  0.85354351    -0.15100
H1749       H  0.68922718  0.73215092  0.80596163     0.11000
H1750       H  0.69083654  0.80699612  0.87734139     0.11000
H1751       H  0.72659726  0.79766833  0.91877754     0.11000
H1752       H  0.72687688  0.72425501  0.84681746     0.11000
C1753       C  0.67989469  0.85883751  0.69568030    -0.15100
C1754       C  0.64741727  0.82975758  0.69419919     0.07000
C1755       C  0.63229600  0.81807679  0.66077313    -0.15100
C1756       C  0.64834520  0.83564332  0.62972904    -0.15100
C1757       C  0.67986879  0.86583070  0.63108167     0.07000
C1758       C  0.69591265  0.87685430  0.66437586    -0.15100
H1759       H  0.69223358  0.86839772  0.72112201     0.11000
H1760       H  0.60759674  0.79550761  0.65861629     0.11000
H1761       H  0.63523693  0.82619088  0.60461962     0.11000
H1762       H  0.71999896  0.90015417  0.66642219     0.11000
C1763       C  0.63014392  0.78749282  0.92945956    -0.15100
C1764       C  0.60680034  0.79076140  0.90798198     0.07000
C1765       C  0.59347686  0.81083928  0.91986566    -0.15100
C1766       C  0.60648154  0.83068701  0.95044673    -0.15100
C1767       C  0.63358664  0.83132890  0.96873409     0.07000
C1768       C  0.64396366  0.80818530  0.95937020    -0.15100
H1769       H  0.64074783  0.77215520  0.92078261     0.11000
H1770       H  0.57539945  0.81363988  0.90364400     0.11000
H1771       H  0.59842787  0.84865516  0.95694766     0.11000
H1772       H  0.66503845  0.80851437  0.97304930     0.11000
C1773       C  0.26378141  0.43725836  0.78169556    -0.15100
C1774       C  0.24587087  0.45299331  0.79323162     0.07000
C1775       C  0.26230781  0.48207185  0.81454133    -0.15100
C1776       C  0.29592573  0.49448596  0.82532094    -0.15100
C1777       C  0.31373080  0.47843739  0.81413471     0.07000
C1778       C  0.29749669  0.45009727  0.79164744    -0.15100
H1779       H  0.25150854  0.41473717  0.76531802     0.11000
H1780       H  0.24870529  0.49429606  0.82404737     0.11000
H1781       H  0.30785877  0.51635252  0.84262198     0.11000
H1782       H  0.31050609  0.43708166  0.78270182     0.11000
C1783       C  0.29846332  0.40481765  0.91560079    -0.15100
C1784       C  0.33027652  0.41412496  0.93037198     0.07000
C1785       C  0.33224708  0.39590613  0.95938044    -0.15100
C1786       C  0.30252590  0.37024097  0.97494533    -0.15100
C1787       C  0.27063503  0.36181589  0.96092144     0.07000
C1788       C  0.26890481  0.37861643  0.93048333    -0.15100
H1789       H  0.29644996  0.41824626  0.89280057     0.11000
H1790       H  0.35655399  0.40255026  0.97095063     0.11000
H1791       H  0.30436589  0.35758986  0.99852180     0.11000
H1792       H  0.24463379  0.37282403  0.91944921     0.11000
C1793       C  0.46417782  0.62619328  0.86154425    -0.15100
C1794       C  0.44860274  0.60183539  0.83465489     0.07000
C1795       C  0.45263721  0.61258192  0.79886572    -0.15100
C1796       C  0.47405449  0.64647690  0.78994238    -0.15100
C1797       C  0.49204188  0.67029947  0.81661682     0.07000
C1798       C  0.48575149  0.66009842  0.85258617    -0.15100
H1799       H  0.46133098  0.61881099  0.88931457     0.11000
H1800       H  0.44073021  0.59448711  0.77744894     0.11000
H1801       H  0.47876282  0.65342150  0.76205362     0.11000
H1802       H  0.49942115  0.67796566  0.87374415     0.11000
C1803       C  0.40622028  0.39937694  0.76573061    -0.15100
C1804       C  0.38615753  0.39762724  0.79486787     0.07000
C1805       C  0.36126878  0.36592426  0.80778564    -0.15100
C1806       C  0.35714663  0.33630003  0.79224841    -0.15100
C1807       C  0.37866031  0.33820640  0.76447694     0.07000
C1808       C  0.40276981  0.36992678  0.75093456    -0.15100
H1809       H  0.42584270  0.42354510  0.75565133     0.11000
H1810       H  0.34564885  0.36414276  0.83040408     0.11000
H1811       H  0.33824766  0.31205947  0.80285583     0.11000
H1812       H  0.41929072  0.37194942  0.72910716     0.11000
C1813       C  0.67395006  0.53092602  0.68499230    -0.15100
C1814       C  0.66366551  0.52657799  0.64905503     0.07000
C1815       C  0.68743916  0.53185807  0.62239949    -0.15100
C1816       C  0.72152147  0.54466159  0.63130195    -0.15100
C1817       C  0.73237268  0.55222368  0.66701451     0.07000
C1818       C  0.70797302  0.54366175  0.69389720    -0.15100
H1819       H  0.65611049  0.52699570  0.70614410     0.11000
H1820       H  0.68036618  0.52907499  0.59451214     0.11000
H1821       H  0.73967275  0.55052416  0.60994726     0.11000
H1822       H  0.71541510  0.54872031  0.72163816     0.11000
C1823       C  0.69036113  0.61125445  0.55714102    -0.15100
C1824       C  0.65683094  0.60284576  0.55054077     0.07000
C1825       C  0.64910527  0.61526223  0.51992149    -0.15100
C1826       C  0.67505404  0.63723779  0.99707907    -0.15100
C1827       C  0.70891169  0.64670659  0.50434962     0.07000
C1828       C  0.71613135  0.63259963  0.53395704    -0.15100
H1829       H  0.69661262  0.60137313  0.58037333     0.11000
H1830       H  0.62319896  0.60865083  0.51435604     0.11000
H1831       H  0.66896934  0.64801234  0.97452788     0.11000
H1832       H  0.74199639  0.63966642  0.54043440     0.11000
C1833       C  0.46784202  0.40422049  0.61501341    -0.15100
C1834       C  0.50167876  0.42206451  0.62624280     0.07000
C1835       C  0.51454698  0.40552713  0.64703440    -0.15100
C1836       C  0.49329071  0.37198011  0.65782326    -0.15100
C1837       C  0.45915927  0.35432162  0.64713321     0.07000
C1838       C  0.44693330  0.37060322  0.62493788    -0.15100
H1839       H  0.45742366  0.41650248  0.59895421     0.11000
H1840       H  0.54055767  0.41901035  0.65622216     0.11000
H1841       H  0.50338098  0.36001254  0.67481966     0.11000
H1842       H  0.42074942  0.35773118  0.61628193     0.11000
C1843       C  0.54524104  0.61743041  0.70228821    -0.15100
C1844       C  0.56453228  0.62428383  0.67093047     0.07000
C1845       C  0.58793206  0.65801322  0.66221762    -0.15100
C1846       C  0.59207733  0.68433195  0.68472154    -0.15100
C1847       C  0.57399154  0.67709261  0.71696307     0.07000
C1848       C  0.55033027  0.64350636  0.72533609    -0.15100
H1849       H  0.52750411  0.59167290  0.71005053     0.11000
H1850       H  0.60346639  0.66390180  0.63847123     0.11000
H1851       H  0.61023962  0.71017213  0.67766835     0.11000
H1852       H  0.53571751  0.63743561  0.74979706     0.11000
C1853       C  0.51724780  0.52100933  0.99469548    -0.15100
C1854       C  0.50554970  0.52488575  0.52799409     0.07000
C1855       C  0.47671805  0.52862612  0.52923002    -0.15100
C1856       C  0.45872238  0.52625210  0.99774242    -0.15100
C1857       C  0.46962803  0.52058703  0.96468504     0.07000
C1858       C  0.49978696  0.51922856  0.96354379    -0.15100
H1859       H  0.53970707  0.51869107  0.99277990     0.11000
H1860       H  0.46715301  0.53166675  0.55457525     0.11000
H1861       H  0.43555507  0.52729081  0.49967075     0.11000
H1862       H  0.50920609  0.51522301  0.93856275     0.11000
C1863       C  0.52518918  0.48961279  0.75432797    -0.15100
C1864       C  0.54486713  0.52278826  0.74172824     0.07000
C1865       C  0.54842873  0.54972889  0.76273220    -0.15100
C1866       C  0.52833569  0.54327656  0.79307316    -0.15100
C1867       C  0.50542878  0.50987732  0.80318896     0.07000
C1868       C  0.50595258  0.48321430  0.78535249    -0.15100
H1869       H  0.52221475  0.46853483  0.73841712     0.11000
H1870       H  0.56342652  0.57550504  0.75337643     0.11000
H1871       H  0.52809030  0.56415158  0.80641162     0.11000
H1872       H  0.48818323  0.45726390  0.79250451     0.11000
loop_ 
_geom_bond_atom_site_label_1 
_geom_bond_atom_site_label_2 
_geom_bond_distance 
_geom_bond_site_symmetry_2 
_ccdc_geom_bond_type 
O1           C16   1.260       .  A
O1           Al9   1.896       .  S
C2           O12   1.262       .  A
C2            O3   1.266       .  A
C2          C898   1.473       .  S
O3           Al5   1.929       .  S
O4            C6   1.262       .  A
O4           Al5   1.890       .  S
Al5          O13   1.902       .  S
Al5          O15   1.936       .  S
Al5          O14   1.770       .  S
C6           O19   1.267       .  A
C6          C928   1.466       .  S
O7           C17   1.255       .  A
O7           Al9   1.874       .  S
O8           C21   1.259       .  A
O8          Al18   1.885       .  S
Al9          O22   1.934       .  S
Al9          O19   1.934       .  S
Al9          O14   1.767       .  S
O10          C17   1.269       .  A
O10         Al18   1.953       .  S
O11          C20   1.273       .  A
O11         Al18   1.940       .  S
O12         Al18   1.906       .  S
O13          C20   1.265       .  A
O14         Al18   1.770       .  S
O15          C16   1.267       .  A
C16         C908   1.477       .  S
C17         C878   1.477       .  S
C20         C918   1.484       .  S
C21          O22   1.268       .  A
C21         C888   1.463       .  S
O23          C38   1.261       .  A
O23         Al31   1.881       .  S
C24          O34   1.257       .  A
C24          O25   1.265       .  A
C24         C848   1.470       .  S
O25         Al27   1.932       .  S
O26          C28   1.255       .  A
O26         Al27   1.884       .  S
Al27         O35   1.865       .  S
Al27         O37   1.945       .  S
Al27         O36   1.772       .  S
C28          O41   1.265       .  A
C28         C868   1.467       .  S
O29          C39   1.261       .  A
O29         Al31   1.873       .  S
O30          C43   1.265       .  A
O30         Al40   1.912       .  S
Al31         O44   1.916       .  S
Al31         O41   1.933       .  S
Al31         O36   1.767       .  S
O32          C39   1.273       .  A
O32         Al40   1.953       .  S
O33          C42   1.273       .  A
O33         Al40   1.968       .  S
O34         Al40   1.876       .  S
O35          C42   1.257       .  A
O36         Al40   1.772       .  S
O37          C38   1.270       .  A
C38         C931   1.465       .  S
C39         C841   1.477       .  S
C42         C921   1.487       .  S
C43          O44   1.263       .  A
C43         C858   1.483       .  S
O45          C60   1.258       .  A
O45         Al53   1.890       .  S
C46          O56   1.263       .  A
C46          O47   1.264       .  A
C46         C798   1.476       .  S
O47         Al49   1.920       .  S
O48          C50   1.262       .  A
O48         Al49   1.888       .  S
Al49         O57   1.901       .  S
Al49         O59   1.931       .  S
Al49         O58   1.772       .  S
C50          O63   1.269       .  A
C50         C828   1.470       .  S
O51          C61   1.254       .  A
O51         Al53   1.873       .  S
O52          C65   1.260       .  A
O52         Al62   1.895       .  S
Al53         O66   1.940       .  S
Al53         O63   1.946       .  S
Al53         O58   1.767       .  S
O54          C61   1.270       .  A
O54         Al62   1.955       .  S
O55          C64   1.275       .  A
O55         Al62   1.950       .  S
O56         Al62   1.916       .  S
O57          C64   1.265       .  A
O58         Al62   1.768       .  S
O59          C60   1.266       .  A
C60         C808   1.471       .  S
C61         C861   1.478       .  S
C64         C818   1.488       .  S
C65          O66   1.269       .  A
C65         C911   1.473       .  S
O67          C82   1.260       .  A
O67         Al75   1.881       .  S
C68          O78   1.257       .  A
C68          O69   1.266       .  A
C68         C771   1.472   1_565  S
O69         Al71   1.938       .  S
O70        C1008   1.255   1_554  A
O70         Al71   1.883       .  S
Al71         O79   1.867       .  S
Al71         O81   1.950       .  S
Al71         O80   1.771       .  S
C72          O85   1.266       .  A
C72        O1006   1.255       .  A
C72         C788   1.471       .  S
O73        C1019   1.260       .  A
O73         Al75   1.873       .  S
O74          C87   1.266       .  A
O74         Al84   1.907       .  S
Al75         O88   1.920       .  S
Al75         O85   1.936       .  S
Al75       O1016   1.767       .  S
O76          C83   1.272   1_554  A
O76         Al84   1.955       .  S
O77          C86   1.273       .  A
O77         Al84   1.973       .  S
O78         Al84   1.874       .  S
O79          C86   1.256       .  A
O80         Al84   1.774       .  S
O80       Al1011   1.767   1_554  S
O81        C1018   1.270   1_554  A
C82        O1017   1.270       .  A
C82         C831   1.468       .  S
C83        O1009   1.260       .  A
C83        C1694   1.478   1_565  S
C86         C821   1.490       .  S
C87        O1024   1.265   1_554  A
C87         C778   1.482   1_554  S
O88        C1023   1.265       .  A
O89         C104   1.258       .  A
O89         Al97   1.891       .  S
C90         O100   1.264       .  A
C90          O91   1.264       .  A
C90         C718   1.480       .  S
O91         Al93   1.917       .  S
O92          C94   1.262       .  A
O92         Al93   1.890       .  S
Al93        O101   1.897       .  S
Al93        O103   1.928       .  S
Al93        O102   1.772       .  S
C94         O107   1.269       .  A
C94         C748   1.470       .  S
O95         C105   1.255       .  A
O95         Al97   1.872       .  S
O96         C109   1.259       .  A
O96        Al106   1.892       .  S
Al97        O110   1.935       .  S
Al97        O107   1.945       .  S
Al97        O102   1.767       .  S
O98         C105   1.271       .  A
O98        Al106   1.961       .  S
O99         C108   1.276       .  A
O99        Al106   1.952       .  S
O100       Al106   1.922       .  S
O101        C108   1.265       .  A
O102       Al106   1.769       .  S
O103        C104   1.265       .  A
C104        C728   1.468   1_655  S
C105        C698   1.483       .  S
C108        C741   1.487       .  S
C109        O110   1.268       .  A
C109        C708   1.470       .  S
O111        C126   1.261   1_455  A
O111       Al119   1.879       .  S
C112        O122   1.257       .  A
C112        O113   1.266       .  A
C112        C668   1.473       .  S
O113       Al115   1.935       .  S
O114        C116   1.255       .  A
O114       Al115   1.889   1_655  S
Al115       O123   1.868       .  S
Al115       O125   1.949   1_455  S
Al115       O124   1.774       .  S
C116        O129   1.265   1_655  A
C116        C688   1.473       .  S
O117        C127   1.262       .  A
O117       Al119   1.877       .  S
O118        C131   1.266       .  A
O118       Al128   1.914       .  S
Al119       O132   1.928       .  S
Al119       O129   1.939       .  S
Al119       O124   1.768       .  S
O120        C127   1.274       .  A
O120       Al128   1.963       .  S
O121        C130   1.273       .  A
O121       Al128   1.971       .  S
O122       Al128   1.874       .  S
O123        C130   1.256       .  A
O124       Al128   1.774       .  S
O125        C126   1.271       .  A
C126        C751   1.467       .  S
C127        C658   1.483       .  S
C130        C738   1.491       .  S
C131        O132   1.265       .  A
C131        C678   1.489       .  S
O133        C148   1.259       .  A
O133       Al141   1.890       .  S
C134        O144   1.264       .  A
C134        O135   1.266       .  A
C134        C628   1.474       .  S
O135       Al137   1.921       .  S
O136        C138   1.261       .  A
O136      Al1073   1.888   1_554  S
Al137       O145   1.907       .  S
Al137       O147   1.923       .  S
Al137      O1072   1.887       .  S
Al137       O146   1.770       .  S
C138        O151   1.268       .  A
C138        C648   1.469       .  S
O139        C149   1.255       .  A
O139       Al141   1.882       .  S
O140        C153   1.260       .  A
O140       Al150   1.885       .  S
Al141       O154   1.939       .  S
Al141      O1087   1.938       .  S
Al141       O146   1.769       .  S
O142        C149   1.267       .  A
O142       Al150   1.945       .  S
O143        C152   1.272       .  A
O143       Al150   1.940       .  S
O144       Al150   1.910       .  S
O145        C152   1.265       .  A
O146       Al150   1.769       .  S
O147        C148   1.265       .  A
C148       C1827   1.471       .  S
C149        C781   1.476       .  S
O151      Al1077   1.939   1_554  S
C152        C638   1.488       .  S
C153        O154   1.270       .  A
C153        C811   1.467       .  S
O155        C170   1.261       .  A
O155       Al163   1.883       .  S
C156        O166   1.257       .  A
C156        O157   1.265       .  A
C156        C691   1.473       .  S
O157       Al159   1.935       .  S
O158        C160   1.256       .  A
O158       Al159   1.888       .  S
Al159       O167   1.866       .  S
Al159       O169   1.949       .  S
Al159       O168   1.773       .  S
C160        O173   1.265       .  A
C160        C618   1.472       .  S
O161        C171   1.262       .  A
O161       Al163   1.875       .  S
O162        C175   1.264       .  A
O162       Al172   1.907       .  S
Al163       O176   1.919       .  S
Al163       O173   1.936       .  S
Al163       O168   1.768       .  S
O164        C171   1.273       .  A
O164       Al172   1.963       .  S
O165        C174   1.273       .  A
O165       Al172   1.972       .  S
O166       Al172   1.876       .  S
O167        C174   1.257       .  A
O168       Al172   1.774       .  S
O169        C170   1.270       .  A
C170        C651   1.467       .  S
C171        C721   1.480       .  S
C174        C641   1.491       .  S
C175        O176   1.263       .  A
C175        C881   1.482       .  S
O177        C192   1.260       .  A
O177       Al185   1.877       .  S
C178        O188   1.258       .  A
C178        O179   1.266       .  A
C178        C588   1.471       .  S
O179       Al181   1.936       .  S
O180        C182   1.255       .  A
O180       Al181   1.887       .  S
Al181       O189   1.866       .  S
Al181       O191   1.951       .  S
Al181       O190   1.773       .  S
C182        O195   1.266       .  A
C182        C768   1.472       .  S
O183        C193   1.260       .  A
O183       Al185   1.871       .  S
O184        C197   1.265       .  A
O184       Al194   1.910       .  S
Al185       O198   1.925       .  S
Al185       O195   1.939       .  S
Al185       O190   1.765       .  S
O186        C193   1.272       .  A
O186       Al194   1.956       .  S
O187        C196   1.271       .  A
O187       Al194   1.961       .  S
O188       Al194   1.876       .  S
O189        C196   1.256       .  A
O190       Al194   1.773       .  S
O191        C192   1.271       .  A
C192        C608   1.467       .  S
C193        C578   1.471       .  S
C196        C598   1.484       .  S
C197        O198   1.264       .  A
C197        C701   1.485       .  S
O199        C214   1.259       .  A
O199       Al207   1.894       .  S
C200        O210   1.261       .  A
C200        O201   1.266       .  A
C200        C761   1.471       .  S
O201       Al203   1.928       .  S
O202        C204   1.261       .  A
O202      Al1139   1.887   1_554  S
Al203       O211   1.898       .  S
Al203       O213   1.933       .  S
Al203      O1138   1.887       .  S
Al203       O212   1.769       .  S
C204        O217   1.269       .  A
C204        C611   1.468       .  S
O205        C215   1.254       .  A
O205       Al207   1.871       .  S
O206        C219   1.258       .  A
O206       Al216   1.881       .  S
Al207       O220   1.944       .  S
Al207      O1153   1.944       .  S
Al207       O212   1.766       .  S
O208        C215   1.268       .  A
O208       Al216   1.951       .  S
O209        C218   1.273       .  A
O209       Al216   1.939       .  S
O210       Al216   1.902       .  S
O211        C218   1.264       .  A
O212       Al216   1.770       .  S
O213        C214   1.267       .  A
C214       C1647   1.475       .  S
C215        C558   1.477       .  S
O217      Al1143   1.944   1_554  S
C218        C601   1.481       .  S
C219        O220   1.270       .  A
C219        C568   1.468       .  S
O221        C236   1.260       .  A
O221       Al229   1.900       .  S
C222        O232   1.262       .  A
C222        O223   1.263       .  A
C222        C838   1.471       .  S
O223       Al225   1.921       .  S
O224        C226   1.263       .  A
O224       Al225   1.889       .  S
Al225       O233   1.894       .  S
Al225       O235   1.920       .  S
Al225       O234   1.773       .  S
C226        O239   1.268       .  A
C226        C548   1.465       .  S
O227        C237   1.256       .  A
O227       Al229   1.882       .  S
O228        C241   1.258       .  A
O228       Al238   1.882       .  S
Al229       O242   1.933       .  S
Al229       O239   1.936       .  S
Al229       O234   1.769       .  S
O230        C237   1.269       .  A
O230       Al238   1.956       .  S
O231        C240   1.274       .  A
O231       Al238   1.947       .  S
O232       Al238   1.908       .  S
O233        C240   1.264       .  A
O234       Al238   1.770       .  S
O235        C236   1.264       .  A
C236        C571   1.473       .  S
C237        C681   1.483       .  S
C240        C538   1.482       .  S
C241        O242   1.268       .  A
C241        C731   1.465       .  S
O243        C258   1.261       .  A
O243       Al251   1.882       .  S
C244        O254   1.256       .  A
C244        O245   1.264       .  A
C244        C528   1.463       .  S
O245       Al247   1.932       .  S
O246       C1184   1.256   1_554  A
O246       Al247   1.884       .  S
Al247       O255   1.865       .  S
Al247       O257   1.940       .  S
Al247       O256   1.770       .  S
C248        O261   1.266       .  A
C248       O1182   1.256       .  A
C248        C851   1.471       .  S
O249       C1195   1.261       .  A
O249       Al251   1.873       .  S
O250        C263   1.264       .  A
O250       Al260   1.900       .  S
Al251       O264   1.923       .  S
Al251       O261   1.939       .  S
Al251      O1192   1.767       .  S
O252        C259   1.272   1_554  A
O252       Al260   1.950       .  S
O253        C262   1.272       .  A
O253       Al260   1.964       .  S
O254       Al260   1.868       .  S
O255        C262   1.256       .  A
O256       Al260   1.771       .  S
O256      Al1187   1.767   1_554  S
O257       C1194   1.269   1_554  A
C258       O1193   1.269       .  A
C258        C551   1.464       .  S
C259       O1185   1.261       .  A
C259       C1454   1.475       .  S
C262        C541   1.485       .  S
C263       O1200   1.264   1_554  A
C263        C561   1.479       .  S
O264       C1199   1.264       .  A
O265        C280   1.259       .  A
O265       Al273   1.896       .  S
C266        O276   1.263       .  A
C266        O267   1.265       .  A
C266        C661   1.478       .  S
O267       Al269   1.925       .  S
O268        C270   1.262       .  A
O268       Al269   1.885       .  S
Al269       O277   1.898       .  S
Al269       O279   1.932       .  S
Al269       O278   1.772       .  S
C270        O283   1.269       .  A
C270        C508   1.466       .  S
O271        C281   1.254       .  A
O271       Al273   1.873       .  S
O272        C285   1.258       .  A
O272       Al282   1.883       .  S
Al273       O286   1.938       .  S
Al273       O283   1.940       .  S
Al273       O278   1.768       .  S
O274        C281   1.269       .  A
O274       Al282   1.953       .  S
O275        C284   1.275       .  A
O275       Al282   1.952       .  S
O276       Al282   1.914       .  S
O277        C284   1.265       .  A
O278       Al282   1.769       .  S
O279        C280   1.265       .  A
C280        C491   1.474       .  S
C281        C468   1.479       .  S
C284        C498   1.486       .  S
C285        O286   1.269       .  A
C285        C478   1.464       .  S
O287        C302   1.261       .  A
O287       Al295   1.882       .  S
C288        O298   1.257       .  A
C288        O289   1.264       .  A
C288        C621   1.471   1_455  S
O289       Al291   1.933       .  S
O290       C1228   1.256   1_554  A
O290       Al291   1.888       .  S
Al291       O299   1.868       .  S
Al291       O301   1.944       .  S
Al291       O300   1.773       .  S
C292        O305   1.266       .  A
C292       O1226   1.256       .  A
C292        C671   1.471       .  S
O293       C1239   1.261       .  A
O293       Al295   1.873       .  S
O294        C307   1.265       .  A
O294       Al304   1.910       .  S
Al295       O308   1.922       .  S
Al295       O305   1.940       .  S
Al295      O1236   1.767       .  S
O296        C303   1.273   1_554  A
O296       Al304   1.957       .  S
O297        C306   1.274       .  A
O297       Al304   1.969       .  S
O298       Al304   1.876       .  S
O299        C306   1.257       .  A
O300       Al304   1.773       .  S
O300      Al1231   1.767   1_554  S
O301       C1238   1.269   1_554  A
C302       O1237   1.269       .  A
C302        C511   1.464       .  S
C303       O1229   1.261       .  A
C303       C1567   1.477   1_455  S
C306        C501   1.488       .  S
C307       O1244   1.264   1_554  A
C307        C458   1.485       .  S
O308       C1243   1.264       .  A
O309        C324   1.259       .  A
O309       Al317   1.891       .  S
C310        O320   1.264       .  A
C310        O311   1.264       .  A
C310        C581   1.477       .  S
O311       Al313   1.913       .  S
O312        C314   1.262       .  A
O312       Al313   1.890       .  S
Al313       O321   1.897       .  S
Al313       O323   1.925       .  S
Al313       O322   1.770       .  S
C314        O327   1.268       .  A
C314        C448   1.467       .  S
O315        C325   1.255       .  A
O315       Al317   1.876       .  S
O316        C329   1.260       .  A
O316       Al326   1.890       .  S
Al317       O330   1.936       .  S
Al317       O327   1.940       .  S
Al317       O322   1.767       .  S
O318        C325   1.269       .  A
O318       Al326   1.953       .  S
O319        C328   1.274       .  A
O319       Al326   1.945       .  S
O320       Al326   1.915       .  S
O321        C328   1.264       .  A
O322       Al326   1.772       .  S
O323        C324   1.265       .  A
C324        C481   1.473   1_545  S
C325        C418   1.479       .  S
C328        C438   1.485       .  S
C329        O330   1.269       .  A
C329        C431   1.469       .  S
O331        C346   1.260   1_565  A
O331       Al339   1.879       .  S
C332        O342   1.257       .  A
C332        O333   1.265       .  A
C332        C791   1.467       .  S
O333       Al335   1.935       .  S
O334        C336   1.255       .  A
O334       Al335   1.885   1_545  S
Al335       O343   1.863       .  S
Al335       O345   1.951   1_565  S
Al335       O344   1.772       .  S
C336        O349   1.266   1_545  A
C336        C591   1.470       .  S
O337        C347   1.260       .  A
O337       Al339   1.868       .  S
O338        C351   1.265       .  A
O338       Al348   1.908       .  S
Al339       O352   1.921       .  S
Al339       O349   1.939       .  S
Al339       O344   1.765       .  S
O340        C347   1.274       .  A
O340       Al348   1.964       .  S
O341        C350   1.274       .  A
O341       Al348   1.972       .  S
O342       Al348   1.872       .  S
O343        C350   1.256       .  A
O344       Al348   1.773       .  S
O345        C346   1.270       .  A
C346        C451   1.468       .  S
C347        C801   1.479       .  S
C350        C441   1.489       .  S
C351        O352   1.264       .  A
C351        C471   1.483       .  S
O353        C368   1.260       .  A
O353       Al361   1.880       .  S
C354        O364   1.257       .  A
C354        O355   1.265       .  A
C354        C871   1.469       .  S
O355       Al357   1.932       .  S
O356        C358   1.256       .  A
O356       Al357   1.884       .  S
Al357       O365   1.874       .  S
Al357       O367   1.945       .  S
Al357       O366   1.774       .  S
C358        O371   1.265       .  A
C358        C531   1.471       .  S
O359        C369   1.260       .  A
O359       Al361   1.875       .  S
O360        C373   1.265       .  A
O360       Al370   1.908       .  S
Al361       O374   1.919       .  S
Al361       O371   1.931       .  S
Al361       O366   1.768       .  S
O362        C369   1.273       .  A
O362       Al370   1.957       .  S
O363        C372   1.273       .  A
O363       Al370   1.967       .  S
O364       Al370   1.871       .  S
O365        C372   1.258       .  A
O366       Al370   1.772       .  S
O367        C368   1.269       .  A
C368        C408   1.465       .  S
C369        C901   1.480       .  S
C372        C398   1.488       .  S
C373        O374   1.264       .  A
C373        C421   1.483       .  S
O375        C390   1.259       .  A
O375       Al383   1.896       .  S
C376        O386   1.263       .  A
C376        O377   1.263       .  A
C376        C521   1.470       .  S
O377       Al379   1.917       .  S
O378        C380   1.262       .  A
O378      Al1315   1.888   1_554  S
Al379       O387   1.904       .  S
Al379       O389   1.924       .  S
Al379      O1314   1.888       .  S
Al379       O388   1.773       .  S
C380        O393   1.268       .  A
C380        C411   1.468       .  S
O381        C391   1.255       .  A
O381       Al383   1.880       .  S
O382        C395   1.260       .  A
O382       Al392   1.887       .  S
Al383       O396   1.941       .  S
Al383      O1329   1.939       .  S
Al383       O388   1.771       .  S
O384        C391   1.268       .  A
O384       Al392   1.949       .  S
O385        C394   1.273       .  A
O385       Al392   1.945       .  S
O386       Al392   1.910       .  S
O387        C394   1.266       .  A
O388       Al392   1.769       .  S
O389        C390   1.265       .  A
C390       C1364   1.471       .  S
C391        C461   1.478       .  S
O393      Al1319   1.939   1_554  S
C394        C401   1.486       .  S
C395        O396   1.270       .  A
C395        C488   1.471       .  S
C397        C398   1.408       .  A
C397        C402   1.397       .  A
C397        H403   1.083       .  S
C398        C399   1.407       .  A
C399        C400   1.408       .  A
C399        H404   1.084       .  S
C400        C401   1.409       .  A
C400        H405   1.082       .  S
C401        C402   1.402       .  A
C402        H406   1.084       .  S
C407        C408   1.402       .  A
C407        C412   1.396       .  A
C407        H413   1.084       .  S
C408        C409   1.404       .  A
C409        C410   1.396       .  A
C409        H414   1.083       .  S
C410        C411   1.402       .  A
C410        H415   1.083       .  S
C411        C412   1.404       .  A
C412        H416   1.084       .  S
C417        C418   1.408       .  A
C417        C422   1.399       .  A
C417        H423   1.084       .  S
C418        C419   1.403       .  A
C419        C420   1.399       .  A
C419        H424   1.083       .  S
C420        C421   1.409       .  A
C420        H425   1.083       .  S
C421        C422   1.403       .  A
C422        H426   1.083       .  S
C427        C428   1.404   1_556  A
C427        C432   1.402   1_556  A
C427        H433   1.083       .  S
C428       C1326   1.472   1_554  S
C428       C1365   1.405       .  A
C429       C1364   1.405       .  A
C429       C1366   1.393       .  A
C429        H434   1.084       .  S
C430        C431   1.401       .  A
C430       C1365   1.393       .  A
C430        H435   1.083       .  S
C431        C432   1.405       .  A
C432        H436   1.084       .  S
C437        C442   1.395       .  A
C437       C1374   1.401       .  A
C437        H443   1.084       .  S
C438        C439   1.410   1_545  A
C438       C1373   1.401   1_554  A
C439       C1376   1.407   1_554  A
C439        H444   1.082       .  S
C440        C441   1.405       .  A
C440       C1375   1.407       .  A
C440        H445   1.083       .  S
C441        C442   1.410   1_565  A
C442        H446   1.083       .  S
C447        C448   1.402       .  A
C447        C452   1.396       .  A
C447        H453   1.084       .  S
C448        C449   1.404       .  A
C449        C450   1.397       .  A
C449        H454   1.083       .  S
C450        C451   1.402       .  A
C450        H455   1.084       .  S
C451        C452   1.405       .  A
C452        H456   1.083   1_545  S
C457        C458   1.404       .  A
C457       C1398   1.400       .  A
C457        H463   1.082       .  S
C458       C1395   1.409   1_554  A
C459        C460   1.398       .  A
C459       C1394   1.409       .  A
C459        H464   1.084       .  S
C460        C461   1.403   1_565  A
C460        H465   1.083       .  S
C461        C462   1.408   1_545  A
C462       C1393   1.400       .  A
C462        H466   1.084   1_565  S
C467        C468   1.409       .  A
C467        C472   1.399       .  A
C467        H473   1.084       .  S
C468        C469   1.402       .  A
C469        C470   1.399       .  A
C469        H474   1.083       .  S
C470        C471   1.409       .  A
C470        H475   1.083       .  S
C471        C472   1.403       .  A
C472        H476   1.083       .  S
C477        C478   1.403       .  A
C477        C482   1.399       .  A
C477        H483   1.084       .  S
C478        C479   1.399       .  A
C479        C480   1.394       .  A
C479        H484   1.084       .  S
C480        C481   1.406       .  A
C480        H485   1.084       .  S
C481        C482   1.405       .  A
C482        H486   1.083       .  S
C487        C488   1.405       .  A
C487        C492   1.401   1_545  A
C487        H493   1.083       .  S
C488        C489   1.401   1_545  A
C489        C490   1.395       .  A
C489        H494   1.084       .  S
C490        C491   1.406       .  A
C490        H495   1.083       .  S
C491        C492   1.404       .  A
C492        H496   1.084       .  S
C497        C498   1.402       .  A
C497        C502   1.397       .  A
C497        H503   1.084       .  S
C498        C499   1.410       .  A
C499        C500   1.407       .  A
C499        H504   1.083       .  S
C500        C501   1.405       .  A
C500        H505   1.083       .  S
C501        C502   1.410       .  A
C502        H506   1.083       .  S
C507        C508   1.402       .  A
C507        C512   1.396       .  A
C507        H513   1.083       .  S
C508        C509   1.404       .  A
C509        C510   1.395       .  A
C509        H514   1.084       .  S
C510        C511   1.402       .  A
C510        H515   1.083       .  S
C511        C512   1.403       .  A
C512        H516   1.083       .  S
C517        C518   1.406       .  A
C517        C522   1.393       .  A
C517        H523   1.083       .  S
C518       C1195   1.475       .  S
C518       C1455   1.405       .  A
C519        C520   1.402       .  A
C519       C1454   1.405       .  A
C519        H524   1.083   1_556  S
C520       C1457   1.404       .  A
C520        H525   1.083       .  S
C521        C522   1.401       .  A
C521       C1456   1.404       .  A
C522        H526   1.084       .  S
C527        C528   1.403       .  A
C527        C532   1.392       .  A
C527        H533   1.084       .  S
C528        C529   1.400       .  A
C529        C530   1.399       .  A
C529        H534   1.083       .  S
C530        C531   1.408       .  A
C530        H535   1.083       .  S
C531        C532   1.402       .  A
C532        H536   1.083       .  S
C537        C538   1.410       .  A
C537        C542   1.406       .  A
C537        H543   1.083       .  S
C538        C539   1.400       .  A
C539        C540   1.394       .  A
C539        H544   1.084       .  S
C540        C541   1.409       .  A
C540        H545   1.083       .  S
C541        C542   1.405       .  A
C542        H546   1.084       .  S
C547        C548   1.402       .  A
C547        C552   1.394       .  A
C547        H553   1.083       .  S
C548        C549   1.403       .  A
C549        C550   1.396       .  A
C549        H554   1.083       .  S
C550        C551   1.404       .  A
C550        H555   1.084       .  S
C551        C552   1.402       .  A
C552        H556   1.083       .  S
C557        C562   1.395       .  A
C557       C1494   1.408   1_454  A
C557        H563   1.084   1_455  S
C558        C559   1.403   1_655  A
C558       C1493   1.408   1_655  A
C559        C560   1.399       .  A
C559        H564   1.083       .  S
C560       C1497   1.408       .  A
C560        H565   1.083       .  S
C561        C562   1.402       .  A
C561       C1496   1.408   1_554  A
C562        H566   1.083       .  S
C567        C568   1.399   1_455  A
C567        C572   1.393       .  A
C567        H573   1.083       .  S
C568        C569   1.406       .  A
C569        C570   1.401   1_655  A
C569        H574   1.084       .  S
C570        C571   1.404       .  A
C570        H575   1.083       .  S
C571        C572   1.406       .  A
C572        H576   1.084       .  S
C577        C578   1.405       .  A
C577        C582   1.405       .  A
C577        H583   1.083       .  S
C578        C579   1.401       .  A
C579        C580   1.390       .  A
C579        H584   1.084       .  S
C580        C581   1.404       .  A
C580        H585   1.083       .  S
C581        C582   1.407       .  A
C582        H586   1.083       .  S
C587        C588   1.403       .  A
C587        C592   1.401       .  A
C587        H593   1.082       .  S
C588        C589   1.405       .  A
C589        C590   1.393       .  A
C589        H594   1.084       .  S
C590        C591   1.400       .  A
C590        H595   1.083       .  S
C591        C592   1.407       .  A
C592        H596   1.084       .  S
C597        C598   1.406       .  A
C597        C602   1.406       .  A
C597        H603   1.083       .  S
C598        C599   1.408       .  A
C599        C600   1.393       .  A
C599        H604   1.083       .  S
C600        C601   1.401       .  A
C600        H605   1.084       .  S
C601        C602   1.409       .  A
C602        H606   1.083       .  S
C607        C608   1.402       .  A
C607        C612   1.397       .  A
C607        H613   1.084       .  S
C608        C609   1.405       .  A
C609        C610   1.396       .  A
C609        H614   1.083       .  S
C610        C611   1.402       .  A
C610        H615   1.083       .  S
C611        C612   1.404       .  A
C612        H616   1.083       .  S
C617        C618   1.407       .  A
C617        C622   1.401       .  A
C617        H623   1.083       .  S
C618        C619   1.401       .  A
C619        C620   1.393       .  A
C619        H624   1.084       .  S
C620        C621   1.405       .  A
C620        H625   1.084       .  S
C621        C622   1.402       .  A
C622        H626   1.083   1_655  S
C627        C628   1.406       .  A
C627       C1568   1.404       .  A
C627       H1569   1.083       .  S
C628        C629   1.402       .  A
C629        C630   1.393       .  A
C629        H634   1.083       .  S
C630        C631   1.405       .  A
C630        H635   1.084       .  S
C631       C1239   1.477   1_655  S
C631       C1568   1.405       .  A
C632       C1563   1.404       .  A
C632       C1567   1.405       .  A
C632        H636   1.083   1_556  S
H633       C1563   1.083       .  S
C637        C638   1.402       .  A
C637        C642   1.394       .  A
C637        H643   1.084       .  S
C638        C639   1.410       .  A
C639        C640   1.410       .  A
C639        H644   1.082       .  S
C640        C641   1.407       .  A
C640        H645   1.083       .  S
C641        C642   1.409       .  A
C642        H646   1.083       .  S
C647        C648   1.404       .  A
C647        C652   1.397       .  A
C647        H653   1.084       .  S
C648        C649   1.402       .  A
C649        C650   1.397       .  A
C649        H654   1.084       .  S
C650        C651   1.404       .  A
C650        H655   1.083       .  S
C651        C652   1.402       .  A
C652        H656   1.084       .  S
C657        C658   1.406       .  A
C657        C662   1.406       .  A
C657        H663   1.083       .  S
C658        C659   1.406       .  A
C659        C660   1.394       .  A
C659        H664   1.083       .  S
C660        C661   1.401       .  A
C660        H665   1.084       .  S
C661        C662   1.407       .  A
C662        H666   1.083       .  S
C667        C668   1.403       .  A
C667        C672   1.401       .  A
C667        H673   1.083       .  S
C668        C669   1.406       .  A
C669        C670   1.394       .  A
C669        H674   1.084       .  S
C670        C671   1.401       .  A
C670        H675   1.084       .  S
C671        C672   1.406       .  A
C672        H676   1.083       .  S
C677        C678   1.410       .  A
C677        C682   1.401       .  A
C677        H683   1.083       .  S
C678        C679   1.405       .  A
C679        C680   1.401       .  A
C679        H684   1.082       .  S
C680        C681   1.408       .  A
C680        H685   1.084       .  S
C681        C682   1.404       .  A
C682        H686   1.083       .  S
C687        C688   1.401       .  A
C687        C692   1.394       .  A
C687        H693   1.083       .  S
C688        C689   1.407       .  A
C689        C690   1.402       .  A
C689        H694   1.083       .  S
C690        C691   1.403       .  A
C690        H695   1.083       .  S
C691        C692   1.405       .  A
C692        H696   1.084       .  S
C697        C698   1.403       .  A
C697        C702   1.401       .  A
C697        H703   1.082       .  S
C698        C699   1.409       .  A
C699        C700   1.399       .  A
C699        H704   1.084       .  S
C700        C701   1.403       .  A
C700        H705   1.082       .  S
C701        C702   1.410       .  A
C702        H706   1.084       .  S
C707        C708   1.400       .  A
C707        C712   1.393       .  A
C707        H713   1.084       .  S
C708        C709   1.405       .  A
C709        C710   1.403   1_554  A
C709        H714   1.083       .  S
C710        C711   1.406   1_556  A
C710       H1651   1.084       .  S
C711       C1150   1.475   1_554  S
C711        C712   1.405       .  A
C712        H716   1.083       .  S
H715       C1646   1.084       .  S
C717        C718   1.403       .  A
C717        C722   1.392       .  A
C717        H723   1.083       .  S
C718        C719   1.408       .  A
C719        C720   1.408       .  A
C719        H724   1.083       .  S
C720        C721   1.407       .  A
C720        H725   1.083       .  S
C721        C722   1.404       .  A
C722        H726   1.083       .  S
C727        C728   1.404       .  A
C727        C732   1.399       .  A
C727        H733   1.083       .  S
C728        C729   1.404       .  A
C729        C730   1.393       .  A
C729        H734   1.084       .  S
C730        C731   1.401       .  A
C730        H735   1.083       .  S
C731        C732   1.404       .  A
C732        H736   1.084       .  S
C737        C738   1.410   1_655  A
C737       C1678   1.396       .  A
C737        H743   1.082       .  S
C738        C739   1.406       .  A
C739       C1676   1.409       .  A
C739        H744   1.084       .  S
C740        C741   1.411   1_455  A
C740       C1675   1.409   1_554  A
C740        H745   1.082       .  S
C741        C742   1.401   1_554  A
C742       C1673   1.396       .  A
C742        H746   1.084       .  S
C747        C748   1.403       .  A
C747        C752   1.397       .  A
C747        H753   1.083       .  S
C748        C749   1.405       .  A
C749        C750   1.397       .  A
C749        H754   1.083       .  S
C750        C751   1.402       .  A
C750        H755   1.084       .  S
C751        C752   1.404       .  A
C752        H756   1.084       .  S
C757        C758   1.407       .  A
C757        C762   1.393       .  A
C757        H763   1.083       .  S
C758       C1019   1.478   1_545  S
C758       C1695   1.405       .  A
C759       C1694   1.405       .  A
C759       C1696   1.402       .  A
C759        H764   1.083   1_556  S
C760        C761   1.405       .  A
C760       C1695   1.402       .  A
C760       H1701   1.083       .  S
C761        C762   1.400       .  A
C762        H766   1.084       .  S
H765       C1696   1.083       .  S
C767        C768   1.401       .  A
C767        C772   1.394       .  A
C767        H773   1.083       .  S
C768        C769   1.407       .  A
C769        C770   1.401       .  A
C769        H774   1.083       .  S
C770        C771   1.403       .  A
C770        H775   1.083   1_545  S
C771        C772   1.405       .  A
C772        H776   1.084       .  S
C777        C782   1.397       .  A
C777       C1714   1.408       .  A
C777        H783   1.084       .  S
C778        C779   1.404   1_556  A
C778       C1713   1.408       .  A
C779        C780   1.399       .  A
C779        H784   1.082       .  S
C780       C1717   1.407   1_554  A
C780        H785   1.084       .  S
C781        C782   1.403       .  A
C781       C1716   1.407       .  A
C782        H786   1.083       .  S
C787        C788   1.401       .  A
C787        C792   1.392       .  A
C787        H793   1.083       .  S
C788        C789   1.408       .  A
C789        C790   1.400       .  A
C789       H1730   1.083       .  S
C790        C791   1.401       .  A
C790        H795   1.083       .  S
C791        C792   1.404       .  A
C792        H796   1.084       .  S
H794       C1725   1.084   1_554  S
C797        C798   1.401       .  A
C797        C802   1.392       .  A
C797        H803   1.084       .  S
C798        C799   1.407       .  A
C799        C800   1.406       .  A
C799        H804   1.083       .  S
C800        C801   1.405       .  A
C800        H805   1.083       .  S
C801        C802   1.405       .  A
C802        H806   1.083       .  S
C807        C808   1.404       .  A
C807        C812   1.399       .  A
C807        H813   1.083       .  S
C808        C809   1.405       .  A
C809        C810   1.394       .  A
C809        H814   1.084       .  S
C810        C811   1.400       .  A
C810        H815   1.083       .  S
C811        C812   1.404       .  A
C812        H816   1.084       .  S
C817        C818   1.411       .  A
C817        C822   1.410       .  A
C817        H823   1.082       .  S
C818        C819   1.401       .  A
C819        C820   1.395       .  A
C819        H824   1.084       .  S
C820        C821   1.409       .  A
C820        H825   1.082       .  S
C821        C822   1.407       .  A
C822        H826   1.084       .  S
C827        C828   1.403       .  A
C827        C832   1.397       .  A
C827        H833   1.083       .  S
C828        C829   1.405       .  A
C829        C830   1.397       .  A
C829        H834   1.083       .  S
C830        C831   1.402       .  A
C830        H835   1.084       .  S
C831        C832   1.405       .  A
C832        H836   1.083       .  S
C837        C838   1.401       .  A
C837        C842   1.394       .  A
C837        H843   1.084       .  S
C838        C839   1.404       .  A
C839        C840   1.401       .  A
C839        H844   1.083       .  S
C840        C841   1.405       .  A
C840        H845   1.083       .  S
C841        C842   1.406       .  A
C842        H846   1.084       .  S
C847        C848   1.405       .  A
C847        C852   1.394       .  A
C847        H853   1.084       .  S
C848        C849   1.402       .  A
C849        C850   1.400       .  A
C849        H854   1.083       .  S
C850        C851   1.407       .  A
C850        H855   1.084       .  S
C851        C852   1.401       .  A
C852        H856   1.083       .  S
C857        C858   1.403       .  A
C857        C862   1.400       .  A
C857        H863   1.082       .  S
C858        C859   1.409       .  A
C859        C860   1.398       .  A
C859        H864   1.084       .  S
C860        C861   1.402       .  A
C860        H865   1.083       .  S
C861        C862   1.409       .  A
C862        H866   1.084       .  S
C867        C868   1.400       .  A
C867        C872   1.392       .  A
C867        H873   1.084       .  S
C868        C869   1.406       .  A
C869        C870   1.399       .  A
C869        H874   1.083       .  S
C870        C871   1.402       .  A
C870        H875   1.083       .  S
C871        C872   1.405       .  A
C872        H876   1.084       .  S
C877        C878   1.408       .  A
C877        C882   1.397       .  A
C877        H883   1.084       .  S
C878        C879   1.402       .  A
C879        C880   1.399       .  A
C879        H884   1.083       .  S
C880        C881   1.409       .  A
C880        H885   1.083       .  S
C881        C882   1.403       .  A
C882        H886   1.082       .  S
C887        C888   1.399       .  A
C887        C892   1.392       .  A
C887        H893   1.084       .  S
C888        C889   1.403       .  A
C889       C1826   1.400   1_554  A
C889        H894   1.083       .  S
C890       C1825   1.400       .  A
C890       C1827   1.405       .  A
C890        H895   1.084       .  S
C891       C1084   1.471   1_554  S
C891        C892   1.405       .  A
C891       C1826   1.405   1_554  A
C892        H896   1.083       .  S
C897        C898   1.401       .  A
C897        C902   1.394       .  A
C897        H903   1.084       .  S
C898        C899   1.405       .  A
C899        C900   1.403       .  A
C899        H904   1.083       .  S
C900        C901   1.405       .  A
C900        H905   1.083       .  S
C901        C902   1.407       .  A
C902        H906   1.083       .  S
C907        C908   1.405       .  A
C907        C912   1.395       .  A
C907        H913   1.083       .  S
C908        C909   1.406       .  A
C909        C910   1.403       .  A
C909        H914   1.084       .  S
C910        C911   1.405       .  A
C910        H915   1.083       .  S
C911        C912   1.401       .  A
C912        H916   1.084       .  S
C917        C922   1.393       .  A
C917       C1854   1.401       .  A
C917        H923   1.084       .  S
C918        C919   1.410       .  A
C918       C1853   1.401   1_554  A
C919       C1856   1.408   1_554  A
C919        H924   1.083       .  S
C920        C921   1.406       .  A
C920       C1855   1.408       .  A
C920       H1861   1.083       .  S
C921        C922   1.408       .  A
C922        H926   1.083       .  S
H925       C1856   1.083       .  S
C927        C928   1.403       .  A
C927        C932   1.396       .  A
C927        H933   1.083       .  S
C928        C929   1.402       .  A
C929        C930   1.395       .  A
C929        H934   1.084       .  S
C930        C931   1.404       .  A
C930        H935   1.084       .  S
C931        C932   1.402       .  A
C932        H936   1.084       .  S
O937        C952   1.260       .  A
O937       Al945   1.896       .  S
C938        O948   1.262       .  A
C938        O939   1.266       .  A
C938       C1834   1.473       .  S
O939       Al941   1.929       .  S
O940        C942   1.262       .  A
O940       Al941   1.890       .  S
Al941       O949   1.902       .  S
Al941       O951   1.936       .  S
Al941       O950   1.770       .  S
C942        O955   1.267       .  A
C942       C1864   1.466       .  S
O943        C953   1.255       .  A
O943       Al945   1.874       .  S
O944        C957   1.259       .  A
O944       Al954   1.885       .  S
Al945       O958   1.934       .  S
Al945       O955   1.933       .  S
Al945       O950   1.767       .  S
O946        C953   1.269       .  A
O946       Al954   1.953       .  S
O947        C956   1.273       .  A
O947       Al954   1.940       .  S
O948       Al954   1.907       .  S
O949        C956   1.265       .  A
O950       Al954   1.771       .  S
O951        C952   1.267       .  A
C952       C1844   1.478       .  S
C953       C1814   1.477       .  S
C956       C1854   1.484       .  S
C957        O958   1.268       .  A
C957       C1824   1.463       .  S
O959        C974   1.261       .  A
O959       Al967   1.881       .  S
C960        O970   1.257       .  A
C960        O961   1.265       .  A
C960       C1784   1.471       .  S
O961       Al963   1.933       .  S
O962        C964   1.255       .  A
O962       Al963   1.884       .  S
Al963       O971   1.865       .  S
Al963       O973   1.946       .  S
Al963       O972   1.772       .  S
C964        O977   1.265       .  A
C964       C1804   1.467       .  S
O965        C975   1.261       .  A
O965       Al967   1.873       .  S
O966        C979   1.265       .  A
O966       Al976   1.912       .  S
Al967       O980   1.916       .  S
Al967       O977   1.934       .  S
Al967       O972   1.766       .  S
O968        C975   1.273       .  A
O968       Al976   1.952       .  S
O969        C978   1.273       .  A
O969       Al976   1.968       .  S
O970       Al976   1.877       .  S
O971        C978   1.257       .  A
O972       Al976   1.772       .  S
O973        C974   1.270       .  A
C974       C1867   1.465       .  S
C975       C1777   1.477       .  S
C978       C1857   1.487       .  S
C979        O980   1.263       .  A
C979       C1794   1.483       .  S
O981        C996   1.258       .  A
O981       Al989   1.890       .  S
C982        O992   1.263       .  A
C982        O983   1.264       .  A
C982       C1734   1.476       .  S
O983       Al985   1.920       .  S
O984        C986   1.262       .  A
O984       Al985   1.888       .  S
Al985       O993   1.901       .  S
Al985       O995   1.931       .  S
Al985       O994   1.772       .  S
C986        O999   1.269       .  A
C986       C1764   1.470       .  S
O987        C997   1.254       .  A
O987       Al989   1.873       .  S
O988       C1001   1.260       .  A
O988       Al998   1.895       .  S
Al989      O1002   1.941       .  S
Al989       O999   1.946       .  S
Al989       O994   1.767       .  S
O990        C997   1.270       .  A
O990       Al998   1.955       .  S
O991       C1000   1.275       .  A
O991       Al998   1.950       .  S
O992       Al998   1.915       .  S
O993       C1000   1.265       .  A
O994       Al998   1.768       .  S
O995        C996   1.266       .  A
C996       C1744   1.471       .  S
C997       C1797   1.478       .  S
C1000      C1754   1.487       .  S
C1001      O1002   1.269       .  A
C1001      C1847   1.473       .  S
O1003      C1018   1.260       .  A
O1003     Al1011   1.881       .  S
C1004      O1014   1.257       .  A
C1004      O1005   1.266       .  A
C1004      C1707   1.472   1_565  S
O1005     Al1007   1.938       .  S
O1006     Al1007   1.882       .  S
Al1007     O1015   1.867       .  S
Al1007     O1017   1.950       .  S
Al1007     O1016   1.771       .  S
C1008      O1021   1.266       .  A
C1008      C1724   1.471       .  S
O1009     Al1011   1.873       .  S
O1010      C1023   1.265       .  A
O1010     Al1020   1.907       .  S
Al1011     O1024   1.919       .  S
Al1011     O1021   1.936       .  S
O1012      C1019   1.272       .  A
O1012     Al1020   1.955       .  S
O1013      C1022   1.273       .  A
O1013     Al1020   1.973       .  S
O1014     Al1020   1.874       .  S
O1015      C1022   1.256       .  A
O1016     Al1020   1.774       .  S
C1018      C1767   1.468       .  S
C1022      C1757   1.490       .  S
C1023      C1714   1.482       .  S
O1025      C1040   1.258       .  A
O1025     Al1033   1.890       .  S
C1026      O1036   1.264       .  A
C1026      O1027   1.264       .  A
C1026      C1654   1.480       .  S
O1027     Al1029   1.917       .  S
O1028      C1030   1.262       .  A
O1028     Al1029   1.890       .  S
Al1029     O1037   1.898       .  S
Al1029     O1039   1.928       .  S
Al1029     O1038   1.772       .  S
C1030      O1043   1.269       .  A
C1030      C1684   1.470       .  S
O1031      C1041   1.255       .  A
O1031     Al1033   1.872       .  S
O1032      C1045   1.259       .  A
O1032     Al1042   1.892       .  S
Al1033     O1046   1.935       .  S
Al1033     O1043   1.945       .  S
Al1033     O1038   1.767       .  S
O1034      C1041   1.271       .  A
O1034     Al1042   1.961       .  S
O1035      C1044   1.276       .  A
O1035     Al1042   1.952       .  S
O1036     Al1042   1.922       .  S
O1037      C1044   1.265       .  A
O1038     Al1042   1.769       .  S
O1039      C1040   1.265       .  A
C1040      C1664   1.468   1_655  S
C1041      C1634   1.483       .  S
C1044      C1677   1.488       .  S
C1045      O1046   1.268       .  A
C1045      C1644   1.470       .  S
O1047      C1062   1.261   1_455  A
O1047     Al1055   1.879       .  S
C1048      O1058   1.257       .  A
C1048      O1049   1.266       .  A
C1048      C1604   1.473       .  S
O1049     Al1051   1.935       .  S
O1050      C1052   1.255       .  A
O1050     Al1051   1.889   1_655  S
Al1051     O1059   1.868       .  S
Al1051     O1061   1.950   1_455  S
Al1051     O1060   1.773       .  S
C1052      O1065   1.265   1_655  A
C1052      C1624   1.473       .  S
O1053      C1063   1.262       .  A
O1053     Al1055   1.877       .  S
O1054      C1067   1.266       .  A
O1054     Al1064   1.914       .  S
Al1055     O1068   1.927       .  S
Al1055     O1065   1.939       .  S
Al1055     O1060   1.768       .  S
O1056      C1063   1.274       .  A
O1056     Al1064   1.962       .  S
O1057      C1066   1.273       .  A
O1057     Al1064   1.971       .  S
O1058     Al1064   1.874       .  S
O1059      C1066   1.256       .  A
O1060     Al1064   1.775       .  S
O1061      C1062   1.271       .  A
C1062      C1687   1.467       .  S
C1063      C1594   1.482       .  S
C1066      C1674   1.490       .  S
C1067      O1068   1.265       .  A
C1067      C1614   1.489       .  S
O1069      C1084   1.259       .  A
O1069     Al1077   1.890       .  S
C1070      O1080   1.264       .  A
C1070      O1071   1.265       .  A
C1070      C1564   1.474       .  S
O1071     Al1073   1.922       .  S
O1072      C1074   1.261       .  A
Al1073     O1081   1.907       .  S
Al1073     O1083   1.923       .  S
Al1073     O1082   1.770       .  S
C1074      O1087   1.268       .  A
C1074      C1584   1.468       .  S
O1075      C1085   1.255       .  A
O1075     Al1077   1.882       .  S
O1076      C1089   1.260       .  A
O1076     Al1086   1.885       .  S
Al1077     O1090   1.939       .  S
Al1077     O1082   1.769       .  S
O1078      C1085   1.267       .  A
O1078     Al1086   1.945       .  S
O1079      C1088   1.272       .  A
O1079     Al1086   1.941       .  S
O1080     Al1086   1.910       .  S
O1081      C1088   1.265       .  A
O1082     Al1086   1.769       .  S
O1083      C1084   1.265       .  A
C1085      C1717   1.476       .  S
C1088      C1574   1.488       .  S
C1089      O1090   1.270       .  A
C1089      C1747   1.467       .  S
O1091      C1106   1.261       .  A
O1091     Al1099   1.883       .  S
C1092      O1102   1.257       .  A
C1092      O1093   1.265       .  A
C1092      C1627   1.473       .  S
O1093     Al1095   1.935       .  S
O1094      C1096   1.256       .  A
O1094     Al1095   1.888       .  S
Al1095     O1103   1.866       .  S
Al1095     O1105   1.949       .  S
Al1095     O1104   1.774       .  S
C1096      O1109   1.265       .  A
C1096      C1554   1.472       .  S
O1097      C1107   1.262       .  A
O1097     Al1099   1.875       .  S
O1098      C1111   1.264       .  A
O1098     Al1108   1.907       .  S
Al1099     O1112   1.920       .  S
Al1099     O1109   1.936       .  S
Al1099     O1104   1.768       .  S
O1100      C1107   1.273       .  A
O1100     Al1108   1.962       .  S
O1101      C1110   1.273       .  A
O1101     Al1108   1.972       .  S
O1102     Al1108   1.875       .  S
O1103      C1110   1.257       .  A
O1104     Al1108   1.774       .  S
O1105      C1106   1.270       .  A
C1106      C1587   1.467       .  S
C1107      C1657   1.480       .  S
C1110      C1577   1.491       .  S
C1111      O1112   1.263       .  A
C1111      C1817   1.482       .  S
O1113      C1128   1.260       .  A
O1113     Al1121   1.878       .  S
C1114      O1124   1.258       .  A
C1114      O1115   1.266       .  A
C1114      C1524   1.471       .  S
O1115     Al1117   1.936       .  S
O1116      C1118   1.255       .  A
O1116     Al1117   1.887       .  S
Al1117     O1125   1.865       .  S
Al1117     O1127   1.951       .  S
Al1117     O1126   1.773       .  S
C1118      O1131   1.266       .  A
C1118      C1704   1.472       .  S
O1119      C1129   1.260       .  A
O1119     Al1121   1.871       .  S
O1120      C1133   1.265       .  A
O1120     Al1130   1.909       .  S
Al1121     O1134   1.925       .  S
Al1121     O1131   1.939       .  S
Al1121     O1126   1.765       .  S
O1122      C1129   1.272       .  A
O1122     Al1130   1.955       .  S
O1123      C1132   1.271       .  A
O1123     Al1130   1.961       .  S
O1124     Al1130   1.876       .  S
O1125      C1132   1.256       .  A
O1126     Al1130   1.773       .  S
O1127      C1128   1.271       .  A
C1128      C1544   1.467       .  S
C1129      C1514   1.471       .  S
C1132      C1534   1.484       .  S
C1133      O1134   1.265       .  A
C1133      C1637   1.485       .  S
O1135      C1150   1.259       .  A
O1135     Al1143   1.894       .  S
C1136      O1146   1.261       .  A
C1136      O1137   1.266       .  A
C1136      C1697   1.471       .  S
O1137     Al1139   1.927       .  S
O1138      C1140   1.261       .  A
Al1139     O1147   1.898       .  S
Al1139     O1149   1.933       .  S
Al1139     O1148   1.769       .  S
C1140      O1153   1.269       .  A
C1140      C1547   1.469       .  S
O1141      C1151   1.254       .  A
O1141     Al1143   1.871       .  S
O1142      C1155   1.258       .  A
O1142     Al1152   1.882       .  S
Al1143     O1156   1.944       .  S
Al1143     O1148   1.766       .  S
O1144      C1151   1.268       .  A
O1144     Al1152   1.950       .  S
O1145      C1154   1.273       .  A
O1145     Al1152   1.939       .  S
O1146     Al1152   1.902       .  S
O1147      C1154   1.264       .  A
O1148     Al1152   1.770       .  S
O1149      C1150   1.267       .  A
C1151      C1494   1.477       .  S
C1154      C1537   1.481       .  S
C1155      O1156   1.270       .  A
C1155      C1504   1.468       .  S
O1157      C1172   1.260       .  A
O1157     Al1165   1.900       .  S
C1158      O1168   1.262       .  A
C1158      O1159   1.264       .  A
C1158      C1774   1.470       .  S
O1159     Al1161   1.922       .  S
O1160      C1162   1.263       .  A
O1160     Al1161   1.888       .  S
Al1161     O1169   1.894       .  S
Al1161     O1171   1.921       .  S
Al1161     O1170   1.773       .  S
C1162      O1175   1.268       .  A
C1162      C1484   1.465       .  S
O1163      C1173   1.256       .  A
O1163     Al1165   1.882       .  S
O1164      C1177   1.258       .  A
O1164     Al1174   1.882       .  S
Al1165     O1178   1.933       .  S
Al1165     O1175   1.936       .  S
Al1165     O1170   1.769       .  S
O1166      C1173   1.269       .  A
O1166     Al1174   1.956       .  S
O1167      C1176   1.274       .  A
O1167     Al1174   1.947       .  S
O1168     Al1174   1.907       .  S
O1169      C1176   1.264       .  A
O1170     Al1174   1.769       .  S
O1171      C1172   1.264       .  A
C1172      C1507   1.473       .  S
C1173      C1617   1.483       .  S
C1176      C1474   1.482       .  S
C1177      O1178   1.268       .  A
C1177      C1667   1.465       .  S
O1179      C1194   1.261       .  A
O1179     Al1187   1.883       .  S
C1180      O1190   1.256       .  A
C1180      O1181   1.264       .  A
C1180      C1464   1.463       .  S
O1181     Al1183   1.932       .  S
O1182     Al1183   1.884       .  S
Al1183     O1191   1.865       .  S
Al1183     O1193   1.940       .  S
Al1183     O1192   1.770       .  S
C1184      O1197   1.266       .  A
C1184      C1787   1.471       .  S
O1185     Al1187   1.874       .  S
O1186      C1199   1.264       .  A
O1186     Al1196   1.900       .  S
Al1187     O1200   1.923       .  S
Al1187     O1197   1.940       .  S
O1188      C1195   1.272       .  A
O1188     Al1196   1.950       .  S
O1189      C1198   1.272       .  A
O1189     Al1196   1.965       .  S
O1190     Al1196   1.868       .  S
O1191      C1198   1.256       .  A
O1192     Al1196   1.771       .  S
C1194      C1487   1.464       .  S
C1198      C1477   1.485       .  S
C1199      C1497   1.479       .  S
O1201      C1216   1.259       .  A
O1201     Al1209   1.896       .  S
C1202      O1212   1.263       .  A
C1202      O1203   1.265       .  A
C1202      C1597   1.478       .  S
O1203     Al1205   1.925       .  S
O1204      C1206   1.262       .  A
O1204     Al1205   1.885       .  S
Al1205     O1213   1.898       .  S
Al1205     O1215   1.931       .  S
Al1205     O1214   1.771       .  S
C1206      O1219   1.269       .  A
C1206      C1444   1.467       .  S
O1207      C1217   1.254       .  A
O1207     Al1209   1.873       .  S
O1208      C1221   1.258       .  A
O1208     Al1218   1.883       .  S
Al1209     O1222   1.939       .  S
Al1209     O1219   1.940       .  S
Al1209     O1214   1.768       .  S
O1210      C1217   1.269       .  A
O1210     Al1218   1.953       .  S
O1211      C1220   1.275       .  A
O1211     Al1218   1.951       .  S
O1212     Al1218   1.914       .  S
O1213      C1220   1.265       .  A
O1214     Al1218   1.769       .  S
O1215      C1216   1.265       .  A
C1216      C1427   1.474       .  S
C1217      C1404   1.479       .  S
C1220      C1434   1.486       .  S
C1221      O1222   1.269       .  A
C1221      C1414   1.464       .  S
O1223      C1238   1.261       .  A
O1223     Al1231   1.883       .  S
C1224      O1234   1.257       .  A
C1224      O1225   1.264       .  A
C1224      C1557   1.471   1_455  S
O1225     Al1227   1.932       .  S
O1226     Al1227   1.888       .  S
Al1227     O1235   1.868       .  S
Al1227     O1237   1.943       .  S
Al1227     O1236   1.773       .  S
C1228      O1241   1.266       .  A
C1228      C1607   1.471       .  S
O1229     Al1231   1.873       .  S
O1230      C1243   1.265       .  A
O1230     Al1240   1.909       .  S
Al1231     O1244   1.921       .  S
Al1231     O1241   1.940       .  S
O1232      C1239   1.273       .  A
O1232     Al1240   1.957       .  S
O1233      C1242   1.273       .  A
O1233     Al1240   1.969       .  S
O1234     Al1240   1.876       .  S
O1235      C1242   1.257       .  A
O1236     Al1240   1.773       .  S
C1238      C1447   1.464       .  S
C1242      C1437   1.488       .  S
C1243      C1394   1.485       .  S
O1245      C1260   1.259       .  A
O1245     Al1253   1.892       .  S
C1246      O1256   1.264       .  A
C1246      O1247   1.264       .  A
C1246      C1517   1.476       .  S
O1247     Al1249   1.913       .  S
O1248      C1250   1.262       .  A
O1248     Al1249   1.890       .  S
Al1249     O1257   1.898       .  S
Al1249     O1259   1.925       .  S
Al1249     O1258   1.770       .  S
C1250      O1263   1.268       .  A
C1250      C1384   1.467       .  S
O1251      C1261   1.255       .  A
O1251     Al1253   1.877       .  S
O1252      C1265   1.260       .  A
O1252     Al1262   1.890       .  S
Al1253     O1266   1.935       .  S
Al1253     O1263   1.940       .  S
Al1253     O1258   1.767       .  S
O1254      C1261   1.269       .  A
O1254     Al1262   1.953       .  S
O1255      C1264   1.274       .  A
O1255     Al1262   1.946       .  S
O1256     Al1262   1.915       .  S
O1257      C1264   1.264       .  A
O1258     Al1262   1.772       .  S
O1259      C1260   1.265       .  A
C1260      C1417   1.473   1_545  S
C1261      C1354   1.479       .  S
C1264      C1374   1.485       .  S
C1265      O1266   1.269       .  A
C1265      C1367   1.469       .  S
O1267      C1282   1.260   1_565  A
O1267     Al1275   1.879       .  S
C1268      O1278   1.257       .  A
C1268      O1269   1.265       .  A
C1268      C1727   1.467       .  S
O1269     Al1271   1.935       .  S
O1270      C1272   1.255       .  A
O1270     Al1271   1.885   1_545  S
Al1271     O1279   1.863       .  S
Al1271     O1281   1.951   1_565  S
Al1271     O1280   1.772       .  S
C1272      O1285   1.266   1_545  A
C1272      C1527   1.470       .  S
O1273      C1283   1.260       .  A
O1273     Al1275   1.868       .  S
O1274      C1287   1.265       .  A
O1274     Al1284   1.909       .  S
Al1275     O1288   1.920       .  S
Al1275     O1285   1.939       .  S
Al1275     O1280   1.765       .  S
O1276      C1283   1.274       .  A
O1276     Al1284   1.963       .  S
O1277      C1286   1.274       .  A
O1277     Al1284   1.971       .  S
O1278     Al1284   1.872       .  S
O1279      C1286   1.256       .  A
O1280     Al1284   1.773       .  S
O1281      C1282   1.270       .  A
C1282      C1387   1.468       .  S
C1283      C1737   1.479       .  S
C1286      C1377   1.488       .  S
C1287      O1288   1.264       .  A
C1287      C1407   1.483       .  S
O1289      C1304   1.260       .  A
O1289     Al1297   1.880       .  S
C1290      O1300   1.257       .  A
C1290      O1291   1.265       .  A
C1290      C1807   1.469       .  S
O1291     Al1293   1.932       .  S
O1292      C1294   1.256       .  A
O1292     Al1293   1.883       .  S
Al1293     O1301   1.874       .  S
Al1293     O1303   1.945       .  S
Al1293     O1302   1.775       .  S
C1294      O1307   1.265       .  A
C1294      C1467   1.471       .  S
O1295      C1305   1.260       .  A
O1295     Al1297   1.875       .  S
O1296      C1309   1.265       .  A
O1296     Al1306   1.908       .  S
Al1297     O1310   1.919       .  S
Al1297     O1307   1.932       .  S
Al1297     O1302   1.768       .  S
O1298      C1305   1.273       .  A
O1298     Al1306   1.957       .  S
O1299      C1308   1.273       .  A
O1299     Al1306   1.968       .  S
O1300     Al1306   1.871       .  S
O1301      C1308   1.258       .  A
O1302     Al1306   1.772       .  S
O1303      C1304   1.269       .  A
C1304      C1344   1.465       .  S
C1305      C1837   1.481       .  S
C1308      C1334   1.489       .  S
C1309      O1310   1.264       .  A
C1309      C1357   1.483       .  S
O1311      C1326   1.259       .  A
O1311     Al1319   1.896       .  S
C1312      O1322   1.263       .  A
C1312      O1313   1.263       .  A
C1312      C1457   1.470       .  S
O1313     Al1315   1.917       .  S
O1314      C1316   1.262       .  A
Al1315     O1323   1.904       .  S
Al1315     O1325   1.924       .  S
Al1315     O1324   1.773       .  S
C1316      O1329   1.268       .  A
C1316      C1347   1.468       .  S
O1317      C1327   1.255       .  A
O1317     Al1319   1.881       .  S
O1318      C1331   1.260       .  A
O1318     Al1328   1.886       .  S
Al1319     O1332   1.941       .  S
Al1319     O1324   1.771       .  S
O1320      C1327   1.268       .  A
O1320     Al1328   1.949       .  S
O1321      C1330   1.273       .  A
O1321     Al1328   1.946       .  S
O1322     Al1328   1.910       .  S
O1323      C1330   1.266       .  A
O1324     Al1328   1.769       .  S
O1325      C1326   1.265       .  A
C1327      C1397   1.479       .  S
C1330      C1337   1.486       .  S
C1331      O1332   1.270       .  A
C1331      C1424   1.471       .  S
C1333      C1334   1.408       .  A
C1333      C1338   1.398       .  A
C1333      H1339   1.083       .  S
C1334      C1335   1.407       .  A
C1335      C1336   1.408       .  A
C1335      H1340   1.084       .  S
C1336      C1337   1.409       .  A
C1336      H1341   1.082       .  S
C1337      C1338   1.402       .  A
C1338      H1342   1.084       .  S
C1343      C1344   1.402       .  A
C1343      C1348   1.396       .  A
C1343      H1349   1.084       .  S
C1344      C1345   1.404       .  A
C1345      C1346   1.396       .  A
C1345      H1350   1.083       .  S
C1346      C1347   1.402       .  A
C1346      H1351   1.083       .  S
C1347      C1348   1.404       .  A
C1348      H1352   1.084       .  S
C1353      C1354   1.408       .  A
C1353      C1358   1.399       .  A
C1353      H1359   1.084       .  S
C1354      C1355   1.403       .  A
C1355      C1356   1.399       .  A
C1355      H1360   1.083       .  S
C1356      C1357   1.409       .  A
C1356      H1361   1.084       .  S
C1357      C1358   1.403       .  A
C1358      H1362   1.083       .  S
C1363      C1364   1.404       .  A
C1363      C1368   1.401       .  A
C1363      H1369   1.083       .  S
C1365      H1370   1.084       .  S
C1366      C1367   1.401       .  A
C1366      H1371   1.083       .  S
C1367      C1368   1.405       .  A
C1368      H1372   1.084       .  S
C1373      C1378   1.394       .  A
C1373      H1379   1.084       .  S
C1374      C1375   1.410   1_545  A
C1375      H1380   1.082       .  S
C1376      C1377   1.405       .  A
C1376      H1381   1.083       .  S
C1377      C1378   1.410   1_565  A
C1378      H1382   1.083       .  S
C1383      C1384   1.402       .  A
C1383      C1388   1.396       .  A
C1383      H1389   1.084       .  S
C1384      C1385   1.404       .  A
C1385      C1386   1.397       .  A
C1385      H1390   1.083       .  S
C1386      C1387   1.402       .  A
C1386      H1391   1.084       .  S
C1387      C1388   1.405       .  A
C1388      H1392   1.083   1_545  S
C1393      C1394   1.404       .  A
C1393      H1399   1.082       .  S
C1395      C1396   1.398       .  A
C1395      H1400   1.084       .  S
C1396      C1397   1.403   1_565  A
C1396      H1401   1.083       .  S
C1397      C1398   1.408   1_546  A
C1398      H1402   1.084   1_565  S
C1403      C1404   1.409       .  A
C1403      C1408   1.399       .  A
C1403      H1409   1.084       .  S
C1404      C1405   1.402       .  A
C1405      C1406   1.399       .  A
C1405      H1410   1.083       .  S
C1406      C1407   1.409       .  A
C1406      H1411   1.083       .  S
C1407      C1408   1.403       .  A
C1408      H1412   1.083       .  S
C1413      C1414   1.403       .  A
C1413      C1418   1.399       .  A
C1413      H1419   1.084       .  S
C1414      C1415   1.399       .  A
C1415      C1416   1.394       .  A
C1415      H1420   1.084       .  S
C1416      C1417   1.406       .  A
C1416      H1421   1.084       .  S
C1417      C1418   1.405       .  A
C1418      H1422   1.083       .  S
C1423      C1424   1.405       .  A
C1423      C1428   1.401   1_545  A
C1423      H1429   1.083       .  S
C1424      C1425   1.401   1_545  A
C1425      C1426   1.395       .  A
C1425      H1430   1.084       .  S
C1426      C1427   1.406       .  A
C1426      H1431   1.083       .  S
C1427      C1428   1.404       .  A
C1428      H1432   1.084       .  S
C1433      C1434   1.402       .  A
C1433      C1438   1.397       .  A
C1433      H1439   1.084       .  S
C1434      C1435   1.409       .  A
C1435      C1436   1.407       .  A
C1435      H1440   1.083       .  S
C1436      C1437   1.405       .  A
C1436      H1441   1.083       .  S
C1437      C1438   1.410       .  A
C1438      H1442   1.083       .  S
C1443      C1444   1.402       .  A
C1443      C1448   1.396       .  A
C1443      H1449   1.083       .  S
C1444      C1445   1.404       .  A
C1445      C1446   1.395       .  A
C1445      H1450   1.084       .  S
C1446      C1447   1.402       .  A
C1446      H1451   1.083       .  S
C1447      C1448   1.403       .  A
C1448      H1452   1.083       .  S
C1453      C1454   1.406       .  A
C1453      C1458   1.393       .  A
C1453      H1459   1.083       .  S
C1455      C1456   1.401       .  A
C1455      H1460   1.083       .  S
C1456      H1461   1.083       .  S
C1457      C1458   1.401       .  A
C1458      H1462   1.084       .  S
C1463      C1464   1.403       .  A
C1463      C1468   1.392       .  A
C1463      H1469   1.084       .  S
C1464      C1465   1.400       .  A
C1465      C1466   1.399       .  A
C1465      H1470   1.083       .  S
C1466      C1467   1.408       .  A
C1466      H1471   1.083       .  S
C1467      C1468   1.402       .  A
C1468      H1472   1.083       .  S
C1473      C1474   1.410       .  A
C1473      C1478   1.406       .  A
C1473      H1479   1.083       .  S
C1474      C1475   1.400       .  A
C1475      C1476   1.394       .  A
C1475      H1480   1.084       .  S
C1476      C1477   1.409       .  A
C1476      H1481   1.083       .  S
C1477      C1478   1.405       .  A
C1478      H1482   1.084       .  S
C1483      C1484   1.402       .  A
C1483      C1488   1.394       .  A
C1483      H1489   1.083       .  S
C1484      C1485   1.403       .  A
C1485      C1486   1.396       .  A
C1485      H1490   1.083       .  S
C1486      C1487   1.404       .  A
C1486      H1491   1.084       .  S
C1487      C1488   1.402       .  A
C1488      H1492   1.083       .  S
C1493      C1498   1.395       .  A
C1493      H1499   1.084   1_455  S
C1494      C1495   1.403   1_655  A
C1495      C1496   1.399       .  A
C1495      H1500   1.083       .  S
C1496      H1501   1.083       .  S
C1497      C1498   1.402       .  A
C1498      H1502   1.083       .  S
C1503      C1504   1.399   1_455  A
C1503      C1508   1.393       .  A
C1503      H1509   1.083       .  S
C1504      C1505   1.406       .  A
C1505      C1506   1.401   1_655  A
C1505      H1510   1.084       .  S
C1506      C1507   1.404       .  A
C1506      H1511   1.083       .  S
C1507      C1508   1.406       .  A
C1508      H1512   1.084       .  S
C1513      C1514   1.405       .  A
C1513      C1518   1.405       .  A
C1513      H1519   1.083       .  S
C1514      C1515   1.401       .  A
C1515      C1516   1.390       .  A
C1515      H1520   1.084       .  S
C1516      C1517   1.404       .  A
C1516      H1521   1.083       .  S
C1517      C1518   1.407       .  A
C1518      H1522   1.083       .  S
C1523      C1524   1.403       .  A
C1523      C1528   1.401       .  A
C1523      H1529   1.082       .  S
C1524      C1525   1.405       .  A
C1525      C1526   1.393       .  A
C1525      H1530   1.084       .  S
C1526      C1527   1.400       .  A
C1526      H1531   1.083       .  S
C1527      C1528   1.407       .  A
C1528      H1532   1.084       .  S
C1533      C1534   1.406       .  A
C1533      C1538   1.406       .  A
C1533      H1539   1.083       .  S
C1534      C1535   1.408       .  A
C1535      C1536   1.393       .  A
C1535      H1540   1.083       .  S
C1536      C1537   1.401       .  A
C1536      H1541   1.084       .  S
C1537      C1538   1.409       .  A
C1538      H1542   1.083       .  S
C1543      C1544   1.402       .  A
C1543      C1548   1.397       .  A
C1543      H1549   1.084       .  S
C1544      C1545   1.405       .  A
C1545      C1546   1.397       .  A
C1545      H1550   1.083       .  S
C1546      C1547   1.402       .  A
C1546      H1551   1.083       .  S
C1547      C1548   1.404       .  A
C1548      H1552   1.083       .  S
C1553      C1554   1.407       .  A
C1553      C1558   1.401       .  A
C1553      H1559   1.083       .  S
C1554      C1555   1.402       .  A
C1555      C1556   1.393       .  A
C1555      H1560   1.084       .  S
C1556      C1557   1.405       .  A
C1556      H1561   1.084       .  S
C1557      C1558   1.402       .  A
C1558      H1562   1.083   1_655  S
C1563      C1564   1.406       .  A
C1564      C1565   1.402       .  A
C1565      C1566   1.393       .  A
C1565      H1570   1.083       .  S
C1566      C1567   1.405       .  A
C1566      H1571   1.084       .  S
C1568      H1572   1.083       .  S
C1573      C1574   1.402       .  A
C1573      C1578   1.394       .  A
C1573      H1579   1.084       .  S
C1574      C1575   1.410       .  A
C1575      C1576   1.410       .  A
C1575      H1580   1.082       .  S
C1576      C1577   1.407       .  A
C1576      H1581   1.083       .  S
C1577      C1578   1.409       .  A
C1578      H1582   1.083       .  S
C1583      C1584   1.404       .  A
C1583      C1588   1.397       .  A
C1583      H1589   1.084       .  S
C1584      C1585   1.402       .  A
C1585      C1586   1.397       .  A
C1585      H1590   1.084       .  S
C1586      C1587   1.404       .  A
C1586      H1591   1.083       .  S
C1587      C1588   1.402       .  A
C1588      H1592   1.084       .  S
C1593      C1594   1.406       .  A
C1593      C1598   1.406       .  A
C1593      H1599   1.083       .  S
C1594      C1595   1.406       .  A
C1595      C1596   1.394       .  A
C1595      H1600   1.083       .  S
C1596      C1597   1.401       .  A
C1596      H1601   1.084       .  S
C1597      C1598   1.407       .  A
C1598      H1602   1.083       .  S
C1603      C1604   1.403       .  A
C1603      C1608   1.401       .  A
C1603      H1609   1.083       .  S
C1604      C1605   1.406       .  A
C1605      C1606   1.394       .  A
C1605      H1610   1.084       .  S
C1606      C1607   1.401       .  A
C1606      H1611   1.083       .  S
C1607      C1608   1.406       .  A
C1608      H1612   1.083       .  S
C1613      C1614   1.410       .  A
C1613      C1618   1.401       .  A
C1613      H1619   1.083       .  S
C1614      C1615   1.405       .  A
C1615      C1616   1.401       .  A
C1615      H1620   1.082       .  S
C1616      C1617   1.408       .  A
C1616      H1621   1.084       .  S
C1617      C1618   1.404       .  A
C1618      H1622   1.083       .  S
C1623      C1624   1.401       .  A
C1623      C1628   1.394       .  A
C1623      H1629   1.083       .  S
C1624      C1625   1.407       .  A
C1625      C1626   1.402       .  A
C1625      H1630   1.083       .  S
C1626      C1627   1.403       .  A
C1626      H1631   1.083       .  S
C1627      C1628   1.405       .  A
C1628      H1632   1.084       .  S
C1633      C1634   1.403       .  A
C1633      C1638   1.401       .  A
C1633      H1639   1.082       .  S
C1634      C1635   1.409       .  A
C1635      C1636   1.399       .  A
C1635      H1640   1.084       .  S
C1636      C1637   1.403       .  A
C1636      H1641   1.082       .  S
C1637      C1638   1.409       .  A
C1638      H1642   1.084       .  S
C1643      C1644   1.400       .  A
C1643      C1648   1.393       .  A
C1643      H1649   1.084       .  S
C1644      C1645   1.405       .  A
C1645      C1646   1.403       .  A
C1645      H1650   1.083       .  S
C1646      C1647   1.406       .  A
C1647      C1648   1.405       .  A
C1648      H1652   1.083       .  S
C1653      C1654   1.403       .  A
C1653      C1658   1.392       .  A
C1653      H1659   1.083       .  S
C1654      C1655   1.408       .  A
C1655      C1656   1.408       .  A
C1655      H1660   1.083       .  S
C1656      C1657   1.407       .  A
C1656      H1661   1.083       .  S
C1657      C1658   1.404       .  A
C1658      H1662   1.083       .  S
C1663      C1664   1.404       .  A
C1663      C1668   1.399       .  A
C1663      H1669   1.083       .  S
C1664      C1665   1.404       .  A
C1665      C1666   1.393       .  A
C1665      H1670   1.084       .  S
C1666      C1667   1.401       .  A
C1666      H1671   1.083       .  S
C1667      C1668   1.403       .  A
C1668      H1672   1.084       .  S
C1673      C1674   1.410   1_655  A
C1673      H1679   1.082       .  S
C1674      C1675   1.406       .  A
C1675      H1680   1.084   1_556  S
C1676      C1677   1.411   1_455  A
C1676      H1681   1.082       .  S
C1677      C1678   1.401       .  A
C1678      H1682   1.084       .  S
C1683      C1684   1.403       .  A
C1683      C1688   1.397       .  A
C1683      H1689   1.083       .  S
C1684      C1685   1.405       .  A
C1685      C1686   1.397       .  A
C1685      H1690   1.083       .  S
C1686      C1687   1.402       .  A
C1686      H1691   1.084       .  S
C1687      C1688   1.404       .  A
C1688      H1692   1.084   1_655  S
C1693      C1694   1.406       .  A
C1693      C1698   1.393       .  A
C1693      H1699   1.083       .  S
C1695      H1700   1.083       .  S
C1696      C1697   1.405       .  A
C1697      C1698   1.400       .  A
C1698      H1702   1.084       .  S
C1703      C1704   1.401       .  A
C1703      C1708   1.393       .  A
C1703      H1709   1.083       .  S
C1704      C1705   1.407       .  A
C1705      C1706   1.401       .  A
C1705      H1710   1.083       .  S
C1706      C1707   1.403       .  A
C1706      H1711   1.083   1_545  S
C1707      C1708   1.405       .  A
C1708      H1712   1.084       .  S
C1713      C1718   1.397       .  A
C1713      H1719   1.084       .  S
C1714      C1715   1.404       .  A
C1715      C1716   1.399       .  A
C1715      H1720   1.082       .  S
C1716      H1721   1.084       .  S
C1717      C1718   1.403       .  A
C1718      H1722   1.083       .  S
C1723      C1724   1.401       .  A
C1723      C1728   1.392       .  A
C1723      H1729   1.083       .  S
C1724      C1725   1.408       .  A
C1725      C1726   1.400       .  A
C1726      C1727   1.401       .  A
C1726      H1731   1.083       .  S
C1727      C1728   1.404       .  A
C1728      H1732   1.084       .  S
C1733      C1734   1.401       .  A
C1733      C1738   1.392       .  A
C1733      H1739   1.084       .  S
C1734      C1735   1.407       .  A
C1735      C1736   1.406       .  A
C1735      H1740   1.083       .  S
C1736      C1737   1.405       .  A
C1736      H1741   1.083       .  S
C1737      C1738   1.405       .  A
C1738      H1742   1.083       .  S
C1743      C1744   1.404       .  A
C1743      C1748   1.399       .  A
C1743      H1749   1.083       .  S
C1744      C1745   1.405       .  A
C1745      C1746   1.394       .  A
C1745      H1750   1.084       .  S
C1746      C1747   1.400       .  A
C1746      H1751   1.083       .  S
C1747      C1748   1.404       .  A
C1748      H1752   1.084       .  S
C1753      C1754   1.411       .  A
C1753      C1758   1.409       .  A
C1753      H1759   1.082       .  S
C1754      C1755   1.401       .  A
C1755      C1756   1.395       .  A
C1755      H1760   1.084       .  S
C1756      C1757   1.409       .  A
C1756      H1761   1.082       .  S
C1757      C1758   1.407       .  A
C1758      H1762   1.084       .  S
C1763      C1764   1.402       .  A
C1763      C1768   1.397       .  A
C1763      H1769   1.083       .  S
C1764      C1765   1.405       .  A
C1765      C1766   1.397       .  A
C1765      H1770   1.083       .  S
C1766      C1767   1.402       .  A
C1766      H1771   1.084       .  S
C1767      C1768   1.405       .  A
C1768      H1772   1.084       .  S
C1773      C1774   1.401       .  A
C1773      C1778   1.394       .  A
C1773      H1779   1.084       .  S
C1774      C1775   1.404       .  A
C1775      C1776   1.401       .  A
C1775      H1780   1.083       .  S
C1776      C1777   1.405       .  A
C1776      H1781   1.083       .  S
C1777      C1778   1.406       .  A
C1778      H1782   1.084       .  S
C1783      C1784   1.405       .  A
C1783      C1788   1.394       .  A
C1783      H1789   1.084       .  S
C1784      C1785   1.402       .  A
C1785      C1786   1.400       .  A
C1785      H1790   1.083       .  S
C1786      C1787   1.407       .  A
C1786      H1791   1.084       .  S
C1787      C1788   1.401       .  A
C1788      H1792   1.083       .  S
C1793      C1794   1.403       .  A
C1793      C1798   1.400       .  A
C1793      H1799   1.082       .  S
C1794      C1795   1.409       .  A
C1795      C1796   1.398       .  A
C1795      H1800   1.084       .  S
C1796      C1797   1.402       .  A
C1796      H1801   1.083       .  S
C1797      C1798   1.409       .  A
C1798      H1802   1.084       .  S
C1803      C1804   1.400       .  A
C1803      C1808   1.392       .  A
C1803      H1809   1.084       .  S
C1804      C1805   1.406       .  A
C1805      C1806   1.399       .  A
C1805      H1810   1.083       .  S
C1806      C1807   1.402       .  A
C1806      H1811   1.083       .  S
C1807      C1808   1.405       .  A
C1808      H1812   1.084       .  S
C1813      C1814   1.408       .  A
C1813      C1818   1.397       .  A
C1813      H1819   1.084       .  S
C1814      C1815   1.402       .  A
C1815      C1816   1.399       .  A
C1815      H1820   1.083       .  S
C1816      C1817   1.409       .  A
C1816      H1821   1.083       .  S
C1817      C1818   1.403       .  A
C1818      H1822   1.082       .  S
C1823      C1824   1.399       .  A
C1823      C1828   1.392       .  A
C1823      H1829   1.084       .  S
C1824      C1825   1.403       .  A
C1825      H1830   1.083       .  S
C1826      H1831   1.084       .  S
C1827      C1828   1.405       .  A
C1828      H1832   1.083       .  S
C1833      C1834   1.401       .  A
C1833      C1838   1.395       .  A
C1833      H1839   1.084       .  S
C1834      C1835   1.405       .  A
C1835      C1836   1.403       .  A
C1835      H1840   1.083       .  S
C1836      C1837   1.405       .  A
C1836      H1841   1.083       .  S
C1837      C1838   1.407       .  A
C1838      H1842   1.083       .  S
C1843      C1844   1.405       .  A
C1843      C1848   1.395       .  A
C1843      H1849   1.083       .  S
C1844      C1845   1.406       .  A
C1845      C1846   1.404       .  A
C1845      H1850   1.084       .  S
C1846      C1847   1.405       .  A
C1846      H1851   1.083       .  S
C1847      C1848   1.401       .  A
C1848      H1852   1.084       .  S
C1853      C1858   1.393       .  A
C1853      H1859   1.084       .  S
C1854      C1855   1.410       .  A
C1855      H1860   1.083       .  S
C1856      C1857   1.406       .  A
C1857      C1858   1.408       .  A
C1858      H1862   1.083       .  S
C1863      C1864   1.403       .  A
C1863      C1868   1.396       .  A
C1863      H1869   1.083       .  S
C1864      C1865   1.402       .  A
C1865      C1866   1.395       .  A
C1865      H1870   1.084       .  S
C1866      C1867   1.404       .  A
C1866      H1871   1.084       .  S
C1867      C1868   1.402       .  A
C1868      H1872   1.084       .  S
