geometry optimzed in LAMMPS
_audit_creation_date              2020-12-01 
_audit_creation_method            'lammps2cif' 
_symmetry_space_group_name_H-M    'P1' 
_symmetry_Int_Tables_number       1 
_symmetry_cell_setting            triclinic 
loop_ 
_symmetry_equiv_pos_as_xyz 
  x,y,z 
_cell_length_a                    49.05630851 
_cell_length_b                    49.07425392260389 
_cell_length_c                    36.65821771130302 
_cell_angle_alpha                 90.26665357731356 
_cell_angle_beta                  89.93602345036875 
_cell_angle_gamma                 120.1440664058756 
loop_ 
_atom_site_label 
_atom_site_type_symbol 
_atom_site_fract_x 
_atom_site_fract_y 
_atom_site_fract_z 
_atom_site_charge 
O1          O  0.32813577  0.24235789  0.60515660    -0.83000
C2          C  0.37076168  0.36832033  0.58333115     0.96300
O3          O  0.35083355  0.35386455  0.60819328    -0.72100
O4          O  0.31499848  0.30836044  0.56494828    -0.75700
Al5        Al  0.32915126  0.30887303  0.61233499     1.49000
C6          C  0.31032625  0.28815052  0.54103164     0.91600
O7          O  0.38174748  0.29949780  0.53195795    -0.81900
O8          O  0.40967412  0.30593094  0.63443105    -0.75500
Al9        Al  0.35570430  0.27287989  0.57038023     1.90100
O10         O  0.42123061  0.33200089  0.56576478    -0.74600
O11         O  0.39004191  0.34644536  0.65530255    -0.74400
O12         O  0.39483974  0.36522529  0.58159988    -0.80100
O13         O  0.34026222  0.31001394  0.66142014    -0.78300
O14         O  0.36179737  0.30515630  0.59761534    -1.14400
O15         O  0.30001505  0.26446413  0.61836876    -0.73600
C16         C  0.30312009  0.24042198  0.61742185     0.97100
C17         C  0.40982616  0.32184527  0.53458665     0.93500
Al18       Al  0.40093560  0.33526174  0.60886453     1.55600
O19         O  0.32169531  0.27026443  0.54391195    -0.78200
C20         C  0.36580641  0.33113774  0.67495349     0.97700
C21         C  0.40566439  0.28057043  0.61977975     0.92500
O22         O  0.38879605  0.26915565  0.59164939    -0.83600
O23         O  0.24754076  0.31169478  0.88893124    -0.83000
C24         C  0.37422519  0.35924247  0.91256444     0.96300
O25         O  0.36037485  0.33851335  0.88823843    -0.72100
O26         O  0.31547532  0.30363272  0.93273948    -0.75700
Al27       Al  0.31526749  0.31541563  0.88453422     1.49000
C28         C  0.29509292  0.29917734  0.95623467     0.91600
O29         O  0.30241759  0.36940770  0.96131202    -0.81900
O30         O  0.31009944  0.39432224  0.85823744    -0.75500
Al31       Al  0.27717444  0.34130039  0.92319953     1.90100
O32         O  0.33569130  0.40822594  0.92752740    -0.74600
O33         O  0.35127385  0.37477193  0.83972802    -0.74400
O34         O  0.36986869  0.38250087  0.91376830    -0.80100
O35         O  0.31599370  0.32451629  0.83492705    -0.78300
O36         O  0.31015735  0.34779339  0.89724112    -1.14400
O37         O  0.27114489  0.28454937  0.87888539    -0.73600
C38         C  0.24658876  0.28673973  0.87819379     0.97100
C39         C  0.32437314  0.39761542  0.95859446     0.93500
Al40       Al  0.33960461  0.38693323  0.88524195     1.55600
O41         O  0.27622373  0.30926573  0.95199483    -0.78200
C42         C  0.33773597  0.34948079  0.82110367     0.97700
C43         C  0.28391779  0.38923255  0.87132658     0.92500
O44         O  0.27201738  0.37230005  0.89916791    -0.83600
O45         O  0.26130823  0.07634339  0.61345307    -0.83000
C46         C  0.13600022  0.48817174  0.57892574     0.96300
O47         O  0.15174481  0.48259668  0.60173690    -0.72100
O48         O  0.20179467  0.99897928  0.56216917    -0.75700
Al49       Al  0.19601557  0.00836677  0.61042582     1.49000
C50         C  0.22541278  0.01679079  0.54308437     0.91600
O51         O  0.20887615  0.07527457  0.53427676    -0.81900
O52         O  0.19177168  0.08920043  0.63546395    -0.75500
Al53       Al  0.23285336  0.07428618  0.57550531     1.90100
O54         O  0.17069042  0.07528986  0.56467428    -0.74600
O55         O  0.15444289  0.02785164  0.65272138    -0.74400
O56         O  0.13911837  0.01530044  0.57806127    -0.80100
O57         O  0.19007330  0.01370902  0.65997921    -0.78300
O58         O  0.19879939  0.04495042  0.59820771    -1.14400
O59         O  0.23977328  0.02533172  0.62093248    -0.73600
C60         C  0.26335366  0.05270990  0.62344248     0.97100
C61         C  0.18501597  0.07880655  0.53498354     0.93500
Al62       Al  0.16648106  0.05113700  0.60735993     1.55600
O63         O  0.24043890  0.04610245  0.54828690    -0.78200
C64         C  0.16809631  0.01717693  0.67247226     0.97700
C65         C  0.21729323  0.11226207  0.62373651     0.92500
O66         O  0.23255961  0.10870169  0.59831755    -0.83600
O67         O  0.17038551  0.40943362  0.88745884    -0.83000
C68         C  0.14199496  0.00385592  0.91474586     0.96300
O69         O  0.16336661  0.00801062  0.89238811    -0.72100
O70         O  0.19357431  0.48905420  0.93288238    -0.75700
Al71       Al  0.17937644  0.48000950  0.88480898     1.49000
C72         C  0.19683358  0.47062324  0.95358812     0.91600
O73         O  0.11851314  0.41714986  0.96047611    -0.81900
O74         O  0.09624320  0.40475242  0.85455055    -0.75500
Al75       Al  0.14405963  0.41491113  0.92210813     1.90100
O76         O  0.08275963  0.41650146  0.92474566    -0.74600
O77         O  0.12188035  0.46691198  0.83978714    -0.74400
O78         O  0.11625781  0.47778816  0.91431318    -0.80100
O79         O  0.16994021  0.47548624  0.83480097    -0.78300
O80         O  0.14367874  0.44538571  0.89666956    -1.14400
O81         O  0.20279597  0.45932052  0.87575655    -0.73600
C82         C  0.19673357  0.43113411  0.87581909     0.97100
C83         C  0.09113899  0.41301480  0.95611860     0.93500
Al84       Al  0.10703850  0.44184040  0.88401745     1.55600
O85         O  0.17944165  0.44133160  0.95067833    -0.78200
C86         C  0.14683813  0.47628857  0.82136475     0.97700
C87         C  0.09672132  0.38085942  0.86720223     0.92500
O88         O  0.10885196  0.38188568  0.89789096    -0.83600
O89         O  0.42084097  0.16268280  0.60736904    -0.83000
C90         C  0.01490617  0.13322683  0.58020320     0.96300
O91         O  0.01925911  0.15484266  0.60248525    -0.72100
O92         O  0.50137738  0.18713704  0.56349942    -0.75700
Al93       Al  0.49125051  0.17096425  0.61094712     1.49000
C94         C  0.48314710  0.19106020  0.54305495     0.91600
O95         O  0.42961613  0.11261880  0.53242569    -0.81900
O96         O  0.41350048  0.08596292  0.63635994    -0.75500
Al97       Al  0.42674557  0.13727302  0.57167535     1.90100
O98         O  0.42786477  0.07584107  0.56693458    -0.74600
O99         O  0.47566915  0.11125340  0.65382243    -0.74400
O100        O  0.48855774  0.10786489  0.58002641    -0.80100
O101        O  0.48550356  0.15969459  0.66037802    -0.78300
O102        O  0.45646486  0.13570816  0.59747221    -1.14400
O103        O  0.47067417  0.19464268  0.62079155    -0.73600
C104        C  0.44243534  0.18866560  0.62017811     0.97100
C105        C  0.42545299  0.08512713  0.53583777     0.93500
Al106      Al  0.45199851  0.09833152  0.60872826     1.55600
O107        O  0.45382018  0.17340469  0.54516447    -0.78200
C108        C  0.48401851  0.13537001  0.67343463     0.97700
C109        C  0.38988880  0.08604809  0.62193203     0.92500
O110        O  0.39290764  0.10167056  0.59352408    -0.83600
O111        O  0.08925153  0.25332616  0.87530386    -0.83000
C112        C  0.49453324  0.13202330  0.91800026     0.96300
O113        O  0.49028313  0.14910935  0.89590423    -0.72100
O114        O  0.01210457  0.20214615  0.93034831    -0.75700
Al115      Al  0.01875082  0.19199355  0.88309506     1.49000
C116        C  0.03147435  0.22668532  0.94713702     0.91600
O117        O  0.08532297  0.20418104  0.95862949    -0.81900
O118        O  0.09489746  0.17925161  0.85929213    -0.75500
Al119      Al  0.08565807  0.22660148  0.91556502     1.90100
O120        O  0.08126426  0.16254823  0.93151685    -0.74600
O121        O  0.03248596  0.14458402  0.84334108    -0.74400
O122        O  0.02091154  0.13333358  0.91874625    -0.80100
O123        O  0.02130635  0.18204299  0.83457436    -0.78300
O124        O  0.05405985  0.19229039  0.89528856    -1.14400
O125        O  0.03867578  0.23496997  0.86826069    -0.73600
C126        C  0.06677616  0.25682769  0.86398393     0.97100
C127        C  0.08740152  0.17952023  0.95976367     0.93500
Al128      Al  0.05695546  0.15767779  0.88844513     1.55600
O129        O  0.06054580  0.23942170  0.94116463    -0.78200
C130        C  0.02173988  0.15806579  0.82333901     0.97700
C131        C  0.11939416  0.20413924  0.86998480     0.92500
O132        O  0.11778050  0.22165758  0.89404995    -0.83600
O133        O  0.12691806  0.22975256  0.38282138    -0.83000
C134        C  0.15672664  0.13643208  0.41488187     0.96300
O135        O  0.13027994  0.12988549  0.40084374    -0.72100
O136        O  0.10231739  0.15421564  0.43673090    -0.75700
Al137      Al  0.11391186  0.15783921  0.38739387     1.49000
C138        C  0.10334265  0.17432085  0.45875802     0.91600
O139        O  0.18124675  0.22739073  0.45174768    -0.81900
O140        O  0.19569598  0.22805779  0.34481292    -0.75500
Al141      Al  0.15352308  0.22644009  0.41582101     1.90100
O142        O  0.21300351  0.22359069  0.41322048    -0.74600
O143        O  0.16831121  0.16552047  0.33866693    -0.74400
O144        O  0.18083824  0.16296282  0.41005090    -0.80100
O145        O  0.11984336  0.15576536  0.33629159    -0.78300
O146        O  0.15089918  0.19290817  0.39359054    -1.14400
O147        O  0.09104678  0.17991514  0.37479806    -0.73600
C148        C  0.10035337  0.20912714  0.37146637     0.97100
C149        C  0.20833867  0.23296011  0.44329058     0.93500
Al150      Al  0.18619881  0.19458194  0.37793806     1.55600
O151        O  0.11978686  0.20336909  0.45119855    -0.78200
C152        C  0.14287957  0.15554604  0.32153341     0.97700
C153        C  0.20174723  0.25475523  0.35681100     0.92500
O154        O  0.18810657  0.25687707  0.38537325    -0.83600
O155        O  0.23590374  0.11759881  0.11431426    -0.83000
C156        C  0.14202503  0.14568366  0.07881062     0.96300
O157        O  0.13564723  0.11906094  0.09189728    -0.72100
O158        O  0.16126675  0.09100495  0.05853620    -0.75700
Al159      Al  0.16372330  0.10336510  0.10761376     1.49000
C160        C  0.18189432  0.09227484  0.03730789     0.91600
O161        O  0.23367966  0.17097980  0.04420030    -0.81900
O162        O  0.23421679  0.18688172  0.15067764    -0.75500
Al163      Al  0.23264457  0.14349524  0.08060858     1.90100
O164        O  0.22860828  0.20241702  0.08226875    -0.74600
O165        O  0.17154105  0.15829196  0.15688196    -0.74400
O166        O  0.16813632  0.16989174  0.08551749    -0.80100
O167        O  0.15999166  0.10932400  0.15813466    -0.78300
O168        O  0.19875590  0.14066701  0.10211647    -1.14400
O169        O  0.18625136  0.08149706  0.12293871    -0.73600
C170        C  0.21559480  0.09166099  0.12725668     0.97100
C171        C  0.23899181  0.19803270  0.05284218     0.93500
Al172      Al  0.20009517  0.17598541  0.11755829     1.55600
O173        O  0.21065180  0.10942732  0.04560790    -0.78200
C174        C  0.16058492  0.13254767  0.17334776     0.97700
C175        C  0.26076730  0.19247087  0.13870654     0.92500
O176        O  0.26255654  0.17820761  0.11063936    -0.83600
O177        O  0.27955470  0.37900450  0.39281924    -0.83000
C178        C  0.37552950  0.99887244  0.41363026     0.96300
O179        O  0.37243910  0.47163717  0.41358022    -0.72100
O180        O  0.34107498  0.41059111  0.42367826    -0.75700
Al181      Al  0.34453842  0.43717059  0.38301627     1.49000
C182        C  0.32884421  0.40787770  0.45477616     0.91600
O183        O  0.27253255  0.44015482  0.44883313    -0.81900
O184        O  0.27003620  0.46179532  0.37692157    -0.75500
Al185      Al  0.27968145  0.41275092  0.41895073     1.90100
O186        O  0.31033919  0.48755081  0.43444631    -0.74600
O187        O  0.31842536  0.47434776  0.33537043    -0.74400
O188        O  0.35889083  0.00474647  0.39242595    -0.80100
O189        O  0.35617776  0.46306199  0.33928584    -0.78300
O190        O  0.31251267  0.44276515  0.39551735    -1.14400
O191        O  0.31810240  0.40132617  0.35266911    -0.73600
C192        C  0.29257397  0.37783546  0.36350768     0.97100
C193        C  0.28743604  0.46948474  0.45425360     0.93500
Al194      Al  0.31434638  0.47906216  0.38542565     1.55600
O195        O  0.30534977  0.41175407  0.45776613    -0.78200
C196        C  0.34122176  0.47328177  0.32111035     0.97700
C197        C  0.24695660  0.43410758  0.37447293     0.92500
O198        O  0.25014374  0.41100024  0.38365329    -0.83600
O199        O  0.37714985  0.10384335  0.11713064    -0.83000
C200        C  0.35463337  0.48329930  0.07961383     0.96300
O201        O  0.38050919  0.00430320  0.09343793    -0.72100
O202        O  0.40592924  0.05662258  0.05813054    -0.75700
Al203      Al  0.39420106  0.04794466  0.10736399     1.49000
C204        C  0.40714938  0.07844104  0.03933032     0.91600
O205        O  0.32941980  0.05030469  0.04086804    -0.81900
O206        O  0.30679029  0.03116935  0.14489703    -0.75500
Al207      Al  0.35376294  0.07574021  0.07988347     1.90100
O208        O  0.29703690  0.01010308  0.07503901    -0.74600
O209        O  0.33824019  0.00145665  0.15640035    -0.74400
O210        O  0.32980468  0.48408410  0.08468008    -0.80100
O211        O  0.38767513  0.03925478  0.15814948    -0.78300
O212        O  0.35648099  0.04445305  0.10071358    -1.14400
O213        O  0.41559473  0.09313277  0.12030005    -0.73600
C214        C  0.40501135  0.11183439  0.12558608     0.97100
C215        C  0.30350473  0.02541954  0.04581129     0.93500
Al216      Al  0.32124865  0.00960374  0.11424490     1.55600
O217        O  0.39044830  0.09046432  0.04805712    -0.78200
C218        C  0.36376936  0.01727259  0.17339364     0.97700
C219        C  0.30063837  0.05131859  0.13223361     0.92500
O220        O  0.31630611  0.06848203  0.10570377    -0.83600
O221        O  0.38841315  0.26757016  0.10122809    -0.83000
C222        C  0.00579899  0.36840466  0.07990706     0.96300
O223        O  0.47808678  0.36390872  0.07928647    -0.72100
O224        O  0.41762304  0.33026839  0.06877982    -0.75700
Al225      Al  0.44387707  0.33535934  0.10976991     1.49000
C226        C  0.41376395  0.31648434  0.03855432     0.91600
O227        O  0.45290670  0.26681658  0.04481618    -0.81900
O228        O  0.47519227  0.26523019  0.11776303    -0.75500
Al229      Al  0.42339823  0.27048700  0.07497225     1.90100
O230        O  0.49902423  0.30634692  0.06101760    -0.74600
O231        O  0.48371402  0.31299809  0.15990570    -0.74400
O232        O  0.01285494  0.35413750  0.10325540    -0.80100
O233        O  0.46879347  0.34820376  0.15423487    -0.78300
O234        O  0.45184090  0.30455620  0.09858972    -1.14400
O235        O  0.40774543  0.30820395  0.13909612    -0.73600
C236        C  0.38548541  0.28149529  0.12882776     0.97100
C237        C  0.48213279  0.28418764  0.03954624     0.93500
Al238      Al  0.48945092  0.30924648  0.10976102     1.55600
O239        O  0.41935219  0.29412430  0.03584114    -0.78200
C240        C  0.47983881  0.33449622  0.17331789     0.97700
C241        C  0.44829849  0.24082501  0.11959729     0.92500
O242        O  0.42410252  0.24197860  0.11017505    -0.83600
O243        O  0.10860634  0.36530275  0.38452450    -0.83000
C244        C  0.49147905  0.35348058  0.41358755     0.96300
O245        O  0.01388006  0.37809529  0.39918397    -0.72100
O246        O  0.06687251  0.40396714  0.43344982    -0.75700
Al247      Al  0.05633772  0.38786850  0.38548591     1.49000
C248        C  0.08623100  0.40320675  0.45506293     0.91600
O249        O  0.05232296  0.32589848  0.46062172    -0.81900
O250        O  0.03436207  0.29679617  0.35751979    -0.75500
Al251      Al  0.07920100  0.34584112  0.42126374     1.90100
O252        O  0.01231434  0.29206660  0.42713688    -0.74600
O253        O  0.00692256  0.32969651  0.34040888    -0.74400
O254        O  0.49000377  0.32733129  0.41078782    -0.80100
O255        O  0.04612268  0.37793810  0.33516898    -0.78300
O256        O  0.04991629  0.34966604  0.39685363    -1.14400
O257        O  0.10072108  0.40464680  0.37167235    -0.73600
C258        C  0.11772830  0.39177952  0.37032795     0.97100
C259        C  0.02714835  0.30011736  0.45693095     0.93500
Al260      Al  0.01394598  0.31471572  0.38478724     1.55600
O261        O  0.09587322  0.38408201  0.44964398    -0.78200
C262        C  0.02269766  0.35402870  0.32162222     0.97700
C263        C  0.05336835  0.29010303  0.37257342     0.92500
O264        O  0.06976755  0.30602081  0.39958909    -0.83600
C265        C  0.49030480  0.34463994  0.21102919    -0.07300
C266        C  0.52279090  0.36051659  0.21822585    -0.18500
C267        C  0.03427395  0.36516067  0.25403125     0.09900
C268        C  0.01279108  0.35366734  0.28344562    -0.07300
C269        C  0.98029731  0.33898387  0.27608787    -0.18500
C270        C  0.96891098  0.33469892  0.24032317     0.09900
S271        S  0.57623873  0.38314034  0.26008965    -0.33500
S272        S  0.92687604  0.31435724  0.23360910    -0.33500
H273        H  0.92802647  0.33411314  0.20532870     0.27900
H274        H  0.07368451  0.36147498  0.28667375     0.27900
H275        H  0.53928472  0.36789011  0.19568496     0.18500
H276        H  0.96357134  0.33023560  0.29841687     0.18500
C277        C  0.44514147  0.20998991  0.13000735    -0.07300
C278        C  0.42301017  0.19141723  0.15642099    -0.18500
C279        C  0.41327846  0.15943842  0.16026986     0.09900
C280        C  0.42535370  0.14517206  0.13676788    -0.07300
C281        C  0.45077593  0.16461341  0.11408232    -0.18500
C282        C  0.46098867  0.19696175  0.11071022     0.09900
S283        S  0.38349748  0.13707915  0.19369704    -0.33500
S284        S  0.49194528  0.22037366  0.07889281    -0.33500
H285        H  0.50010933  0.19744569  0.07010676     0.27900
H286        H  0.39384718  0.11534575  0.19887738     0.27900
H287        H  0.41266692  0.20159581  0.17358325     0.18500
H288        H  0.46018952  0.15385542  0.09598252     0.18500
C289        C  0.15036928  0.40800338  0.35600327    -0.07300
C290        C  0.17150604  0.43868214  0.36822340    -0.18500
C291        C  0.20408232  0.44945600  0.37110782     0.09900
C292        C  0.21536733  0.42849426  0.36290291    -0.07300
C293        C  0.19451101  0.39945727  0.34686908    -0.18500
C294        C  0.16282254  0.38974991  0.34173589     0.09900
S295        S  0.22974710  0.48846273  0.38918533    -0.33500
S296        S  0.13893528  0.35218150  0.31978755    -0.33500
H297        H  0.11328576  0.35647494  0.31266873     0.27900
H298        H  0.20792357  0.49905393  0.38745862     0.27900
H299        H  0.16220308  0.45292046  0.37908182     0.18500
H300        H  0.20241685  0.38330299  0.33992317     0.18500
C301        C  0.36409296  0.01078964  0.21232197    -0.07300
C302        C  0.37286439  0.48895422  0.22330045    -0.18500
C303        C  0.36629904  0.47637467  0.25868895     0.09900
C304        C  0.35094926  0.48621043  0.28378652    -0.07300
C305        C  0.34379852  0.00931938  0.27289819    -0.18500
C306        C  0.34999443  0.02154516  0.23771357     0.09900
S307        S  0.37575270  0.44622536  0.26892607    -0.33500
S308        S  0.33749389  0.04946903  0.22668385    -0.33500
H309        H  0.35544062  0.06171839  0.19491302     0.27900
H310        H  0.34628640  0.42588710  0.28480867     0.27900
H311        H  0.38308692  0.48017877  0.20353994     0.18500
H312        H  0.33263178  0.01770297  0.29185324     0.18500
C313        C  0.29065476  0.21867294  0.15335401    -0.07300
C314        C  0.31383850  0.21188599  0.16441802    -0.18500
C315        C  0.34572634  0.23491711  0.16348959     0.09900
C316        C  0.35514095  0.26473928  0.14853053    -0.07300
C317        C  0.33203755  0.27294459  0.14191651    -0.18500
C318        C  0.29974962  0.25033300  0.14536537     0.09900
S319        S  0.37362811  0.22403523  0.17873910    -0.33500
S320        S  0.27048180  0.26130280  0.13586425    -0.33500
H321        H  0.29164094  0.29346516  0.12958750     0.27900
H322        H  0.39935729  0.25486000  0.18212179     0.27900
H323        H  0.30736895  0.18800616  0.17121539     0.18500
H324        H  0.33911846  0.29600670  0.13096142     0.18500
C325        C  0.27324567  0.05345520  0.14541930    -0.07300
C326        C  0.27890996  0.08027044  0.16505517    -0.18500
C327        C  0.25638432  0.08981360  0.16606780     0.09900
C328        C  0.22842908  0.07346049  0.14500011    -0.07300
C329        C  0.22088327  0.04427239  0.12981683    -0.18500
C330        C  0.24279466  0.03382214  0.13047614     0.09900
S331        S  0.26632939  0.12529256  0.19118049    -0.33500
S332        S  0.23190971  0.99712446  0.10788937    -0.33500
H333        H  0.24861759  0.98877300  0.13216772     0.27900
H334        H  0.23674103  0.12306673  0.18833711     0.27900
H335        H  0.30184333  0.09512685  0.17736274     0.18500
H336        H  0.19947532  0.03125785  0.11391602     0.18500
C337        C  0.22834608  0.28408793  0.34166150    -0.07300
C338        C  0.22270479  0.30743577  0.32797895    -0.18500
C339        C  0.24712752  0.33896406  0.32646072     0.09900
C340        C  0.27638351  0.34789744  0.34298679    -0.07300
C341        C  0.28318587  0.32433701  0.35218859    -0.18500
C342        C  0.25987209  0.29245210  0.34977872     0.09900
S343        S  0.23975828  0.36735715  0.30464829    -0.33500
S344        S  0.27117230  0.26389205  0.36104079    -0.33500
H345        H  0.25225453  0.24239319  0.33385792     0.27900
H346        H  0.27146769  0.39156240  0.30288054     0.27900
H347        H  0.19908320  0.30139094  0.31996156     0.18500
H348        H  0.30589491  0.33078327  0.36402538     0.18500
C349        C  0.14922175  0.13079647  0.21100369    -0.07300
C350        C  0.13280302  0.14669568  0.21896123    -0.18500
C351        C  0.12873360  0.15352893  0.25490849     0.09900
C352        C  0.14110181  0.14413711  0.28380465    -0.07300
C353        C  0.15550561  0.12625913  0.27595312    -0.18500
C354        C  0.15927914  0.11910633  0.23999166     0.09900
S355        S  0.11193112  0.17829052  0.26184648    -0.33500
S356        S  0.18014182  0.09809150  0.23288986    -0.33500
H357        H  0.15679311  0.07531513  0.20992242     0.27900
H358        H  0.13852394  0.20020075  0.28167499     0.27900
H359        H  0.12508101  0.15585669  0.19689086     0.18500
H360        H  0.16489178  0.11873438  0.29799501     0.18500
C361        C  0.08002479  0.22109575  0.35775490    -0.07300
C362        C  0.05267159  0.21322238  0.37773228    -0.18500
C363        C  0.04075547  0.23389808  0.37950117     0.09900
C364        C  0.05609686  0.26278856  0.36044743    -0.07300
C365        C  0.08026685  0.26821258  0.33626355    -0.18500
C366        C  0.09276155  0.24810436  0.33502550     0.09900
S367        S  0.00792978  0.22368348  0.40940056    -0.33500
S368        S  0.12742660  0.26076474  0.30720323    -0.33500
H369        H  0.13082929  0.23452889  0.31291108     0.27900
H370        H  0.99566821  0.23908573  0.38864690     0.27900
H371        H  0.04275429  0.19284139  0.39544953     0.18500
H372        H  0.09137874  0.28972567  0.32068749     0.18500
C373        C  0.12039645  0.15015138  0.05389222    -0.07300
C374        C  0.12392037  0.18047045  0.05277347    -0.18500
C375        C  0.11341631  0.19072085  0.02312582     0.09900
C376        C  0.09732073  0.16985818  0.99381413    -0.07300
C377        C  0.09139440  0.13862813  0.99646566    -0.18500
C378        C  0.10259585  0.12862317  0.02587475     0.09900
S379        S  0.12461570  0.23170876  0.02308845    -0.33500
S380        S  0.09567523  0.08900603  0.02421835    -0.33500
H381        H  0.08505821  0.08241678  0.06050141     0.27900
H382        H  0.13875079  0.23732121  0.98841806     0.27900
H383        H  0.13742677  0.19743276  0.07394653     0.18500
H384        H  0.07859618  0.12188454  0.97485483     0.18500
C385        C  0.42879312  0.09001807  0.00734067    -0.07300
C386        C  0.41878562  0.09705993  0.97471040    -0.18500
C387        C  0.43843856  0.10771763  0.94385226     0.09900
C388        C  0.46974912  0.11319221  0.94577722    -0.07300
C389        C  0.47929002  0.10526290  0.97824430    -0.18500
C390        C  0.45928892  0.09357691  0.00854724     0.09900
S391        S  0.42162527  0.11285298  0.90266304    -0.33500
S392        S  0.47524414  0.08645318  0.04920780    -0.33500
H393        H  0.45582842  0.05354481  0.04614644     0.27900
H394        H  0.43586734  0.10021464  0.88018465     0.27900
H395        H  0.39517289  0.09353638  0.97295514     0.18500
H396        H  0.50312014  0.10949256  0.98079664     0.18500
C397        C  0.01987841  0.24264601  0.97075391    -0.07300
C398        C  0.99187891  0.24170026  0.96045020    -0.18500
C399        C  0.98071280  0.25841244  0.97998312     0.09900
C400        C  0.49736030  0.27569781  0.01104188    -0.07300
C401        C  0.52671653  0.27891851  0.01938910    -0.18500
C402        C  0.53778834  0.26199706  0.00014109     0.09900
S403        S  0.94588717  0.25782509  0.96340472    -0.33500
S404        S  0.57321450  0.26384721  0.01673794    -0.33500
H405        H  0.56193447  0.23148284  0.01146733     0.27900
H406        H  0.95521378  0.28811511  0.97685534     0.27900
H407        H  0.97896986  0.22846110  0.93651573     0.18500
H408        H  0.53965591  0.29211509  0.04333052     0.18500
C409        C  0.49151641  0.13557694  0.71226754    -0.07300
C410        C  0.47459052  0.14314508  0.73688077    -0.18500
C411        C  0.48237950  0.14775745  0.77371084     0.09900
C412        C  0.00868840  0.14601986  0.78658401    -0.07300
C413        C  0.02449094  0.13636738  0.76241429    -0.18500
C414        C  0.01626521  0.13126971  0.72523127     0.09900
S415        S  0.45746482  0.15567169  0.80274923    -0.33500
S416        S  0.03955274  0.12155702  0.69559629    -0.33500
H417        H  0.03822900  0.13803269  0.66506221     0.27900
H418        H  0.95956003  0.13875296  0.83229354     0.27900
H419        H  0.45516310  0.14579198  0.72717217     0.18500
H420        H  0.04453744  0.13478168  0.77197092     0.18500
C421        C  0.03991392  0.13969908  0.55215463    -0.07300
C422        C  0.06913208  0.16803678  0.55484110    -0.18500
C423        C  0.09087997  0.17931793  0.52586778     0.09900
C424        C  0.08340195  0.16261721  0.49246889    -0.07300
C425        C  0.05543998  0.13316474  0.49072982    -0.18500
C426        C  0.03385677  0.12143217  0.51985664     0.09900
S427        S  0.12774805  0.21503769  0.53343943    -0.33500
S428        S  0.99852877  0.08349483  0.51422181    -0.33500
H429        H  0.50230545  0.07895329  0.47706248     0.27900
H430        H  0.14573660  0.20461436  0.51434336     0.27900
H431        H  0.07483780  0.18221039  0.57942879     0.18500
H432        H  0.04993856  0.11954365  0.46576558     0.18500
C433        C  0.49533630  0.21913630  0.52028725    -0.07300
C434        C  0.47531030  0.23154051  0.51444130    -0.18500
C435        C  0.48606573  0.26011713  0.49688764     0.09900
C436        C  0.01745983  0.27672278  0.48513871    -0.07300
C437        C  0.03795775  0.26535518  0.49230586    -0.18500
C438        C  0.02702361  0.23629846  0.50887989     0.09900
S439        S  0.45878012  0.27414911  0.48992153    -0.33500
S440        S  0.05388463  0.22149787  0.51149630    -0.33500
H441        H  0.03085154  0.18999719  0.50414777     0.27900
H442        H  0.48179449  0.30624581  0.48735714     0.27900
H443        H  0.45120325  0.21925983  0.52419240     0.18500
H444        H  0.06184475  0.27774766  0.48178465     0.18500
C445        C  0.41693979  0.06334627  0.50369519    -0.07300
C446        C  0.41625618  0.07485521  0.46882404    -0.18500
C447        C  0.40609673  0.05511090  0.43801235     0.09900
C448        C  0.39522545  0.02256108  0.44177023    -0.07300
C449        C  0.39772630  0.01137419  0.47600286    -0.18500
C450        C  0.40877452  0.03115565  0.50663229     0.09900
S451        S  0.40764304  0.07299501  0.39466484    -0.33500
S452        S  0.41032099  0.01271699  0.54841406    -0.33500
H453        H  0.44231300  0.03456426  0.55479812     0.27900
H454        H  0.41332087  0.05204255  0.37413439     0.27900
H455        H  0.42347092  0.09949213  0.46540119     0.18500
H456        H  0.38957958  0.98651824  0.47945801     0.18500
C457        C  0.08491609  0.35084976  0.84727219    -0.07300
C458        C  0.10803893  0.34333572  0.83724868    -0.18500
C459        C  0.10208239  0.31225698  0.83846689     0.09900
C460        C  0.07231843  0.28784549  0.85010467    -0.07300
C461        C  0.04792684  0.29492330  0.85445197    -0.18500
C462        C  0.05394788  0.32603293  0.85307848     0.09900
S463        S  0.13376264  0.30556246  0.82663681    -0.33500
S464        S  0.02212319  0.33301249  0.86366372    -0.33500
H465        H  0.03615694  0.36318437  0.84806957     0.27900
H466        H  0.11330720  0.27595768  0.81099191     0.27900
H467        H  0.13190787  0.36221673  0.83226630     0.18500
H468        H  0.02451972  0.27659011  0.86226135     0.18500
C469        C  0.14938058  0.02877340  0.94330482    -0.07300
C470        C  0.18006567  0.05538741  0.94395180    -0.18500
C471        C  0.19098280  0.07705853  0.97302472     0.09900
C472        C  0.17132229  0.07217416  0.00344113    -0.07300
C473        C  0.14014333  0.04652115  0.00202481    -0.18500
C474        C  0.12888267  0.02507988  0.97254338     0.09900
S475        S  0.23006752  0.11062743  0.96903456    -0.33500
S476        S  0.08856164  0.49290484  0.97372687    -0.33500
H477        H  0.07877993  0.50320202  0.00429734     0.27900
H478        H  0.22105092  0.13221792  0.98111637     0.27900
H479        H  0.19623072  0.05923635  0.92179688     0.18500
H480        H  0.12459360  0.04257907  0.02484023     0.18500
C481        C  0.27908948  0.01397875  0.01864521    -0.07300
C482        C  0.26805512  0.48339220  0.00583445    -0.18500
C483        C  0.24025431  0.46782245  0.98593724     0.09900
C484        C  0.22334777  0.48364263  0.97880364    -0.07300
C485        C  0.23458586  0.01442891  0.99187321    -0.18500
C486        C  0.26224949  0.02967443  0.01222472     0.09900
S487        S  0.22779239  0.42842633  0.96929368    -0.33500
S488        S  0.27477164  0.06810810  0.03171213    -0.33500
H489        H  0.24767504  0.06946425  0.02232371     0.27900
H490        H  0.25433753  0.42684565  0.98070141     0.27900
H491        H  0.28096601  0.47148914  0.01249167     0.18500
H492        H  0.22160398  0.02642009  0.98613414     0.18500
C493        C  0.06878112  0.40396062  0.98773642    -0.07300
C494        C  0.08105087  0.41085973  0.02347853    -0.18500
C495        C  0.06129026  0.40212437  0.05424090     0.09900
C496        C  0.02820299  0.38572284  0.04973238    -0.07300
C497        C  0.01591361  0.38000855  0.01416061    -0.18500
C498        C  0.03552260  0.38856193  0.98328845     0.09900
S499        S  0.07972128  0.41277898  0.09854220    -0.33500
S500        S  0.01709712  0.37725744  0.93883722    -0.33500
H501        H  0.98555373  0.36090153  0.95053919     0.27900
H502        H  0.05503502  0.41462748  0.11572982     0.27900
H503        H  0.10634605  0.42319311  0.02759455     0.18500
H504        H  0.99057775  0.36687592  0.01057390     0.18500
C505        C  0.17436579  0.08830854  0.50130786    -0.07300
C506        C  0.19469846  0.09962977  0.47106072    -0.18500
C507        C  0.18781842  0.11237402  0.44056249     0.09900
C508        C  0.16002096  0.11441273  0.43980527    -0.07300
C509        C  0.13858725  0.10112164  0.46858757    -0.18500
C510        C  0.14514011  0.08792244  0.49890568     0.09900
S511        S  0.21601248  0.12652481  0.40376461    -0.33500
S512        S  0.11517501  0.07189600  0.53363325    -0.33500
H513        H  0.11582123  0.04369132  0.53631796     0.27900
H514        H  0.19411450  0.12209459  0.37630050     0.27900
H515        H  0.21673022  0.09952608  0.47150903     0.18500
H516        H  0.11726976  0.10260822  0.46848951     0.18500
C517        C  0.35728361  0.06792157  0.63576432    -0.07300
C518        C  0.34704536  0.08352724  0.65950049    -0.18500
C519        C  0.31575436  0.07743112  0.65853940     0.09900
C520        C  0.29433376  0.05581275  0.63279440    -0.07300
C521        C  0.30365368  0.03763076  0.61229625    -0.18500
C522        C  0.33459551  0.04330424  0.61370044     0.09900
S523        S  0.30472570  0.09793388  0.69058064    -0.33500
S524        S  0.34501416  0.02134564  0.58281700    -0.33500
H525        H  0.37153085  0.02625207  0.60291038     0.27900
H526        H  0.27224849  0.07583647  0.69011131     0.27900
H527        H  0.36412009  0.10242401  0.67666907     0.18500
H528        H  0.28731497  0.02030453  0.59302080     0.18500
C529        C  0.15908881  0.00899616  0.71087884    -0.07300
C530        C  0.18186933  0.02653459  0.73727484    -0.18500
C531        C  0.17745140  0.01731946  0.77375236     0.09900
C532        C  0.14991605  0.48934504  0.78433925    -0.07300
C533        C  0.12648406  0.47238788  0.75819356    -0.18500
C534        C  0.13079733  0.48187956  0.72154651     0.09900
S535        S  0.20791124  0.04244017  0.80546303    -0.33500
S536        S  0.10091403  0.45638440  0.68945410    -0.33500
H537        H  0.10428170  0.48012897  0.66560365     0.27900
H538        H  0.18657585  0.03979860  0.83272661     0.27900
H539        H  0.20363647  0.04734339  0.72922670     0.18500
H540        H  0.10540774  0.45080495  0.76599351     0.18500
C541        C  0.11757114  0.46444011  0.54995964    -0.07300
C542        C  0.11457149  0.47576824  0.51588949    -0.18500
C543        C  0.10506171  0.45661195  0.48465299     0.09900
C544        C  0.09746028  0.42480505  0.48708242    -0.07300
C545        C  0.09925905  0.41300966  0.52125236    -0.18500
C546        C  0.10871903  0.43218948  0.55259739     0.09900
S547        S  0.10586872  0.47509609  0.44195990    -0.33500
S548        S  0.10830876  0.41380511  0.59514754    -0.33500
H549        H  0.09851275  0.43163990  0.61559163     0.27900
H550        H  0.11816501  0.45932905  0.42163534     0.27900
H551        H  0.12194174  0.50045569  0.51278640     0.18500
H552        H  0.09268640  0.38845409  0.52368999     0.18500
C553        C  0.27477405  0.48300972  0.48006604    -0.07300
C554        C  0.27424638  0.51003232  0.46887155    -0.18500
C555        C  0.25581164  0.51993983  0.48694472     0.09900
C556        C  0.23855335  0.00330497  0.51794648    -0.07300
C557        C  0.23947773  0.97657236  0.52953565    -0.18500
C558        C  0.25771708  0.96649557  0.51117641     0.09900
S559        S  0.25421135  0.55306179  0.46819752    -0.33500
S560        S  0.25957816  0.93349817  0.52974590    -0.33500
H561        H  0.29058507  0.44390196  0.51804213     0.27900
H562        H  0.22289817  0.54240593  0.47889986     0.27900
H563        H  0.28663577  0.52238739  0.44440931     0.18500
H564        H  0.22733109  0.96446914  0.55423258     0.18500
C565        C  0.40353643  0.32752897  0.00616660    -0.07300
C566        C  0.41370399  0.32483931  0.97109605    -0.18500
C567        C  0.40656464  0.33687781  0.94009055     0.09900
C568        C  0.38918292  0.35256384  0.94387758    -0.07300
C569        C  0.37950870  0.35575742  0.97896031    -0.18500
C570        C  0.38552965  0.34267822  0.00964909     0.09900
S571        S  0.42050295  0.33169095  0.89653915    -0.33500
S572        S  0.36681629  0.34348243  0.05168845    -0.33500
H573        H  0.35838137  0.31256698  0.06172258     0.27900
H574        H  0.42235570  0.35843846  0.88017383     0.27900
H575        H  0.42764251  0.31359778  0.96773618     0.18500
H576        H  0.36477533  0.36627267  0.98216747     0.18500
C577        C  0.29037579  0.27872870  0.98686403    -0.07300
C578        C  0.29447870  0.25279530  0.98100332    -0.18500
C579        C  0.27936497  0.22643824  0.00322908     0.09900
C580        C  0.25857413  0.22566747  0.03046527    -0.07300
C581        C  0.25772792  0.25324942  0.03859216    -0.18500
C582        C  0.27459591  0.28015600  0.01811047     0.09900
S583        S  0.28776893  0.19517891  0.99527546    -0.33500
S584        S  0.27426220  0.31519939  0.03238272    -0.33500
H585        H  0.30396545  0.33595703  0.01729895     0.27900
H586        H  0.29288679  0.19220497  0.03244226     0.27900
H587        H  0.30782507  0.25218419  0.95773683     0.18500
H588        H  0.24347387  0.25396150  0.06075040     0.18500
C589        C  0.21588259  0.25911362  0.86751953    -0.07300
C590        C  0.19865513  0.26152987  0.83842147    -0.18500
C591        C  0.16686323  0.23859116  0.83287804     0.09900
C592        C  0.15155128  0.21349251  0.85767459    -0.07300
C593        C  0.17003273  0.20865674  0.88314073    -0.18500
C594        C  0.20188764  0.23119995  0.88841986     0.09900
S595        S  0.14615002  0.24338421  0.79527907    -0.33500
S596        S  0.22214011  0.22517237  0.92560226    -0.33500
H597        H  0.22787085  0.25288536  0.94361298     0.27900
H598        H  0.11982201  0.21278548  0.79679486     0.27900
H599        H  0.20964159  0.28183631  0.82073730     0.18500
H600        H  0.15861308  0.18953786  0.90251659     0.18500
C601        C  0.26631075  0.40378329  0.85666887    -0.07300
C602        C  0.27596848  0.43450457  0.86824925    -0.18500
C603        C  0.25416044  0.44491174  0.87255865     0.09900
C604        C  0.22172425  0.42397869  0.86469276    -0.07300
C605        C  0.21285615  0.39433658  0.84962104    -0.18500
C606        C  0.23482659  0.38430121  0.84513792     0.09900
S607        S  0.26785546  0.48348025  0.89248629    -0.33500
S608        S  0.22083693  0.34516628  0.82755452    -0.33500
H609        H  0.25069122  0.34972917  0.81831331     0.27900
H610        H  0.29899623  0.49096226  0.89983155     0.27900
H611        H  0.29998670  0.44912827  0.87772781     0.18500
H612        H  0.18839557  0.37831539  0.84277047     0.18500
C613        C  0.33606863  0.41833634  0.99192850    -0.07300
C614        C  0.31758829  0.40847113  0.02375580    -0.18500
C615        C  0.32560926  0.42779689  0.05481763     0.09900
C616        C  0.35239012  0.45842573  0.05443977    -0.07300
C617        C  0.37218614  0.46756588  0.02385932    -0.18500
C618        C  0.36469684  0.44783037  0.99306119     0.09900
S619        S  0.29996485  0.41245326  0.09388214    -0.33500
S620        S  0.39271924  0.46208348  0.95627185    -0.33500
H621        H  0.39309544  0.43370981  0.95329351     0.27900
H622        H  0.32290458  0.43158706  0.11975823     0.27900
H623        H  0.29607338  0.38581404  0.02426806     0.18500
H624        H  0.39275076  0.49099014  0.02306741     0.18500
C625        C  0.34185763  0.40013876  0.48794809    -0.07300
C626        C  0.32753827  0.39769517  0.52207750    -0.18500
C627        C  0.33815124  0.39032565  0.55417700     0.09900
C628        C  0.36333974  0.38397987  0.55282246    -0.07300
C629        C  0.37827521  0.38731619  0.51898383    -0.18500
C630        C  0.36833540  0.39563767  0.48708936     0.09900
S631        S  0.31847000  0.38972911  0.59593851    -0.33500
S632        S  0.39051360  0.39942945  0.44637346    -0.33500
H633        H  0.39810622  0.43080807  0.44057340     0.27900
H634        H  0.34604714  0.40280145  0.61730276     0.27900
H635        H  0.30781218  0.40172627  0.52403286     0.18500
H636        H  0.39745908  0.38243738  0.51691402     0.18500
C637        C  0.28863571  0.28263910  0.51127638    -0.07300
C638        C  0.26232146  0.28589372  0.51813120    -0.18500
C639        C  0.23582690  0.27105290  0.49559589     0.09900
C640        C  0.23553662  0.25141762  0.46701210    -0.07300
C641        C  0.26322121  0.25098242  0.45855646    -0.18500
C642        C  0.29009955  0.26766409  0.47927288     0.09900
S643        S  0.20339236  0.27785295  0.50383182    -0.33500
S644        S  0.32552037  0.26891987  0.46366367    -0.33500
H645        H  0.34535820  0.29938770  0.47773236     0.27900
H646        H  0.21849101  0.30174150  0.53024453     0.27900
H647        H  0.26175695  0.29835809  0.54231361     0.18500
H648        H  0.26416946  0.23751095  0.43560047     0.18500
C649        C  0.27625490  0.20919790  0.62782522    -0.07300
C650        C  0.28070285  0.19054153  0.65332857    -0.18500
C651        C  0.25744552  0.15888071  0.65869638     0.09900
C652        C  0.23007327  0.14493942  0.63683309    -0.07300
C653        C  0.22406741  0.16452009  0.61462575    -0.18500
C654        C  0.24672214  0.19639028  0.61002020     0.09900
S655        S  0.26443768  0.13659691  0.69232779    -0.33500
S656        S  0.23846958  0.21820718  0.57690687    -0.33500
H657        H  0.26382523  0.22295231  0.55468207     0.27900
H658        H  0.23327075  0.11120116  0.69354112     0.27900
H659        H  0.30273214  0.20034474  0.66824415     0.18500
H660        H  0.20333756  0.15410843  0.59727837     0.18500
C661        C  0.36612966  0.33838805  0.71381988    -0.07300
C662        C  0.37023736  0.36781631  0.72406017    -0.18500
C663        C  0.36151168  0.37258477  0.75894883     0.09900
C664        C  0.34886446  0.34748611  0.78419929    -0.07300
C665        C  0.34701074  0.31884893  0.77437653    -0.18500
C666        C  0.35567025  0.31416389  0.73974244     0.09900
S667        S  0.36454701  0.41007538  0.76830947    -0.33500
S668        S  0.35206321  0.27641643  0.72972787    -0.33500
H669        H  0.37530431  0.28736756  0.70240293     0.27900
H670        H  0.33501468  0.39708474  0.78556731     0.27900
H671        H  0.37791382  0.38634672  0.70392540     0.18500
H672        H  0.33851428  0.29972115  0.79381802     0.18500
C673        C  0.43574155  0.21419305  0.63034685    -0.07300
C674        C  0.45744430  0.24510075  0.61920209    -0.18500
C675        C  0.44994455  0.26916531  0.62035633     0.09900
C676        C  0.42030544  0.26270578  0.63366784    -0.07300
C677        C  0.39982295  0.23265161  0.64803460    -0.18500
C678        C  0.40714153  0.20833581  0.64638616     0.09900
S679        S  0.47719824  0.30625920  0.59947828    -0.33500
S680        S  0.37941212  0.16975513  0.66355022    -0.33500
H681        H  0.35627062  0.17684481  0.67497123     0.27900
H682        H  0.46787719  0.32444813  0.61998796     0.27900
H683        H  0.47946864  0.25001659  0.60665729     0.18500
H684        H  0.37678354  0.22746904  0.65750473     0.18500
C685        C  0.42955243  0.33548956  0.50111367    -0.07300
C686        C  0.41779117  0.31994297  0.46758079    -0.18500
C687        C  0.43620302  0.32933466  0.43598512     0.09900
C688        C  0.46772179  0.35422193  0.43761115    -0.07300
C689        C  0.47857200  0.37199175  0.46979070    -0.18500
C690        C  0.45985274  0.36322030  0.50149080     0.09900
S691        S  0.41917962  0.30693006  0.39476891    -0.33500
S692        S  0.47600777  0.38720913  0.54204171    -0.33500
H693        H  0.50373506  0.41134508  0.52614662     0.27900
H694        H  0.44075498  0.33010108  0.37083938     0.27900
H695        H  0.39456827  0.29929111  0.46610002     0.18500
H696        H  0.50285771  0.39093544  0.47108716     0.18500
O697        O  0.32816437  0.74235485  0.60519657    -0.83000
C698        C  0.37081629  0.86832278  0.58331687     0.96300
O699        O  0.35089193  0.85387673  0.60818553    -0.72100
O700        O  0.31501509  0.80835166  0.56498244    -0.75700
Al701      Al  0.32920378  0.80888680  0.61236107     1.49000
C702        C  0.31032952  0.78813434  0.54106966     0.91600
O703        O  0.38173398  0.79946013  0.53194533    -0.81900
O704        O  0.40974345  0.80592716  0.63438483    -0.75500
Al705      Al  0.35571291  0.77285953  0.57039225     1.90100
O706        O  0.42124045  0.83196342  0.56572342    -0.74600
O707        O  0.39013110  0.84646298  0.65527826    -0.74400
O708        O  0.39488385  0.86521176  0.58157226    -0.80100
O709        O  0.34034725  0.81005531  0.66143693    -0.78300
O710        O  0.36183435  0.80515053  0.59762007    -1.14400
O711        O  0.30006556  0.76448141  0.61843144    -0.73600
C712        C  0.30315907  0.74043197  0.61747746     0.97100
C713        C  0.40981652  0.82180314  0.53455567     0.93500
Al714      Al  0.40098492  0.83525180  0.60883338     1.55600
O715        O  0.32168957  0.77024088  0.54395200    -0.78200
C716        C  0.36590294  0.83118006  0.67494644     0.97700
C717        C  0.40573594  0.78057394  0.61971320     0.92500
O718        O  0.38881625  0.76913625  0.59162451    -0.83600
O719        O  0.24756861  0.81171432  0.88885668    -0.83000
C720        C  0.37424413  0.85924106  0.91252629     0.96300
O721        O  0.36040347  0.83853425  0.88817491    -0.72100
O722        O  0.31549262  0.80362635  0.93264141    -0.75700
Al723      Al  0.31529824  0.81544214  0.88445050     1.49000
C724        C  0.29511140  0.79916676  0.95613931     0.91600
O725        O  0.30242646  0.86939297  0.96127334    -0.81900
O726        O  0.31015354  0.89437370  0.85822471    -0.75500
Al727      Al  0.27719771  0.84130612  0.92314066     1.90100
O728        O  0.33571761  0.90822822  0.92752255    -0.74600
O729        O  0.35133106  0.87482769  0.83969947    -0.74400
O730        O  0.36989418  0.88250347  0.91374980    -0.80100
O731        O  0.31603751  0.82457918  0.83485395    -0.78300
O732        O  0.31018799  0.84781353  0.89718771    -1.14400
O733        O  0.27117831  0.78457923  0.87878212    -0.73600
C734        C  0.24661862  0.78676309  0.87810802     0.97100
C735        C  0.32438356  0.89760128  0.95857873     0.93500
Al736      Al  0.33964447  0.88696091  0.88522325     1.55600
O737        O  0.27624467  0.80926004  0.95191287    -0.78200
C738        C  0.33779678  0.84954677  0.82105624     0.97700
C739        C  0.28396649  0.88927496  0.87130684     0.92500
O740        O  0.27205048  0.87231838  0.89912802    -0.83600
O741        O  0.26133305  0.57635084  0.61337810    -0.83000
C742        C  0.13598601  0.98816151  0.57892202     0.96300
O743        O  0.15172999  0.98257597  0.60172146    -0.72100
O744        O  0.20178249  0.49897516  0.56214011    -0.75700
Al745      Al  0.19603966  0.50838234  0.61040261     1.49000
C746        C  0.22539378  0.51677930  0.54304127     0.91600
O747        O  0.20887970  0.57527726  0.53425549    -0.81900
O748        O  0.19180348  0.58920845  0.63544860    -0.75500
Al749      Al  0.23286426  0.57428990  0.57546077     1.90100
O750        O  0.17070512  0.57530950  0.56465847    -0.74600
O751        O  0.15447274  0.52786067  0.65270323    -0.74400
O752        O  0.13913569  0.51531201  0.57804592    -0.80100
O753        O  0.19012907  0.51375221  0.65996631    -0.78300
O754        O  0.19881970  0.54496182  0.59817871    -1.14400
O755        O  0.23981356  0.52534283  0.62086406    -0.73600
C756        C  0.26339523  0.55272428  0.62335138     0.97100
C757        C  0.18503097  0.57882497  0.53496732     0.93500
Al758      Al  0.16650388  0.55114979  0.60734258     1.55600
O759        O  0.24042529  0.54609328  0.54823185    -0.78200
C760        C  0.16814316  0.51720783  0.67246058     0.97700
C761        C  0.21732354  0.61226994  0.62371830     0.92500
O762        O  0.23258364  0.60871056  0.59828880    -0.83600
O763        O  0.17044155  0.90946728  0.88750274    -0.83000
C764        C  0.14200137  0.50386665  0.91474744     0.96300
O765        O  0.16337735  0.50801471  0.89240045    -0.72100
O766        O  0.19358322  0.98908454  0.93288946    -0.75700
Al767      Al  0.17938897  0.98002088  0.88481687     1.49000
C768        C  0.19683864  0.97065895  0.95360848     0.91600
O769        O  0.11851989  0.91714300  0.96047869    -0.81900
O770        O  0.09628330  0.90475234  0.85455299    -0.75500
Al771      Al  0.14408974  0.91492597  0.92212791     1.90100
O772        O  0.08276684  0.91647721  0.92473603    -0.74600
O773        O  0.12189128  0.96690002  0.83979705    -0.74400
O774        O  0.11625659  0.97777141  0.91431845    -0.80100
O775        O  0.16995034  0.97547203  0.83480829    -0.78300
O776        O  0.14369840  0.94538968  0.89668179    -1.14400
O777        O  0.20283413  0.95935409  0.87578544    -0.73600
C778        C  0.19678441  0.93117208  0.87585840     0.97100
C779        C  0.09114283  0.91299619  0.95611194     0.93500
Al780      Al  0.10705299  0.94182824  0.88402102     1.55600
O781        O  0.17944887  0.94136606  0.95071076    -0.78200
C782        C  0.14684488  0.97626773  0.82137092     0.97700
C783        C  0.09677950  0.88086673  0.86719581     0.92500
O784        O  0.10890597  0.88189041  0.89788751    -0.83600
O785        O  0.42098277  0.66272836  0.60719496    -0.83000
C786        C  0.01499316  0.63317883  0.58020534     0.96300
O787        O  0.01934024  0.65478285  0.60250191    -0.72100
O788        O  0.50154551  0.68711064  0.56342945    -0.75700
Al789      Al  0.49136071  0.67094711  0.61088731     1.49000
C790        C  0.48333106  0.69104344  0.54296588     0.91600
O791        O  0.42975665  0.61258806  0.53234797    -0.81900
O792        O  0.41356343  0.58598201  0.63628767    -0.75500
Al793      Al  0.42688342  0.63727474  0.57155244     1.90100
O794        O  0.42794413  0.57580928  0.56690491    -0.74600
O795        O  0.47572614  0.61124502  0.65379905    -0.74400
O796        O  0.48863787  0.60782136  0.58000991    -0.80100
O797        O  0.48555544  0.65968681  0.66033014    -0.78300
O798        O  0.45656936  0.63569857  0.59739885    -1.14400
O799        O  0.47081553  0.69466721  0.62065081    -0.73600
C800        C  0.44258571  0.68871279  0.61999361     0.97100
C801        C  0.42556212  0.58508793  0.53579319     0.93500
Al802      Al  0.45207099  0.59831509  0.60869075     1.55600
O803        O  0.45400218  0.67338036  0.54503597    -0.78200
C804        C  0.48406319  0.63536339  0.67340542     0.97700
C805        C  0.38996647  0.58608018  0.62183216     0.92500
O806        O  0.39300906  0.60169323  0.59340680    -0.83600
O807        O  0.08932781  0.75335467  0.87520760    -0.83000
C808        C  0.49457522  0.63209079  0.91801837     0.96300
O809        O  0.49032326  0.64919340  0.89594956    -0.72100
O810        O  0.01218977  0.70227554  0.93029805    -0.75700
Al811      Al  0.01880153  0.69205294  0.88306305     1.49000
C812        C  0.03157564  0.72682422  0.94705894     0.91600
O813        O  0.08536736  0.70425857  0.95859858    -0.81900
O814        O  0.09492653  0.67926460  0.85927857    -0.75500
Al815      Al  0.08572225  0.72665859  0.91550569     1.90100
O816        O  0.08129055  0.66260249  0.93152095    -0.74600
O817        O  0.03251560  0.64460298  0.84333465    -0.74400
O818        O  0.02094619  0.63338784  0.91874125    -0.80100
O819        O  0.02130860  0.68203934  0.83455540    -0.78300
O820        O  0.05410559  0.69233955  0.89525590    -1.14400
O821        O  0.03875147  0.73500562  0.86816030    -0.73600
C822        C  0.06685441  0.75685399  0.86387339     0.97100
C823        C  0.08742437  0.67958588  0.95975839     0.93500
Al824      Al  0.05698707  0.65771564  0.88843841     1.55600
O825        O  0.06064253  0.73953684  0.94107637    -0.78200
C826        C  0.02175164  0.65806577  0.82332889     0.97700
C827        C  0.11943180  0.70414593  0.86996388     0.92500
O828        O  0.11783099  0.72167508  0.89402294    -0.83600
O829        O  0.12691552  0.72972589  0.38284305    -0.83000
C830        C  0.15681111  0.63647206  0.41483060     0.96300
O831        O  0.13036693  0.62990381  0.40076835    -0.72100
O832        O  0.10243064  0.65419763  0.43676292    -0.75700
Al833      Al  0.11396083  0.65784112  0.38740369     1.49000
C834        C  0.10343633  0.67429295  0.45879226     0.91600
O835        O  0.18129325  0.72741415  0.45172252    -0.81900
O836        O  0.19569499  0.72808125  0.34477412    -0.75500
Al837      Al  0.15354656  0.72644112  0.41581872     1.90100
O838        O  0.21305377  0.72364239  0.41317404    -0.74600
O839        O  0.16832796  0.66554422  0.33863451    -0.74400
O840        O  0.18090924  0.66301488  0.41001559    -0.80100
O841        O  0.11986352  0.65581250  0.33627990    -0.78300
O842        O  0.15093731  0.69292307  0.39358032    -1.14400
O843        O  0.09103936  0.67988095  0.37490331    -0.73600
C844        C  0.10033155  0.70908757  0.37155492     0.97100
C845        C  0.20838768  0.73299986  0.44325323     0.93500
Al846      Al  0.18623642  0.69461775  0.37789996     1.55600
O847        O  0.11982860  0.70334383  0.45121505    -0.78200
C848        C  0.14289474  0.65559016  0.32150658     0.97700
C849        C  0.20174673  0.75477615  0.35678058     0.92500
O850        O  0.18811026  0.75689245  0.38535132    -0.83600
O851        O  0.23590528  0.61763921  0.11431710    -0.83000
C852        C  0.14203201  0.64573790  0.07878721     0.96300
O853        O  0.13565302  0.61911782  0.09188407    -0.72100
O854        O  0.16126023  0.59104889  0.05850677    -0.75700
Al855      Al  0.16372829  0.60341388  0.10758725     1.49000
C856        C  0.18188760  0.59229027  0.03729840     0.91600
O857        O  0.23368482  0.67097500  0.04413859    -0.81900
O858        O  0.23423703  0.68693372  0.15060578    -0.75500
Al859      Al  0.23264828  0.64351235  0.08057741     1.90100
O860        O  0.22862708  0.70243796  0.08218163    -0.74600
O861        O  0.17157052  0.65836280  0.15682232    -0.74400
O862        O  0.16815777  0.66993914  0.08545554    -0.80100
O863        O  0.16001745  0.60939364  0.15810837    -0.78300
O864        O  0.19876555  0.64070622  0.10207356    -1.14400
O865        O  0.18624994  0.58153295  0.12290734    -0.73600
C866        C  0.21559240  0.59169676  0.12724388     0.97100
C867        C  0.23900294  0.69803427  0.05275936     0.93500
Al868      Al  0.20011780  0.67603469  0.11749013     1.55600
O869        O  0.21064462  0.60942066  0.04561259    -0.78200
C870        C  0.16061453  0.63262582  0.17330587     0.97700
C871        C  0.26078284  0.69251001  0.13863762     0.92500
O872        O  0.26256782  0.67823865  0.11057694    -0.83600
O873        O  0.27958765  0.87900089  0.39286046    -0.83000
C874        C  0.37556985  0.49883326  0.41363425     0.96300
O875        O  0.37243036  0.97168710  0.41360733    -0.72100
O876        O  0.34110954  0.91062880  0.42370998    -0.75700
Al877      Al  0.34455781  0.93719187  0.38304619     1.49000
C878        C  0.32888167  0.90791177  0.45480750     0.91600
O879        O  0.27253577  0.94015165  0.44884023    -0.81900
O880        O  0.27000026  0.96172152  0.37684861    -0.75500
Al881      Al  0.27969135  0.91274174  0.41897919     1.90100
O882        O  0.31027827  0.98755461  0.43436412    -0.74600
O883        O  0.31839775  0.97426789  0.33532353    -0.74400
O884        O  0.35893484  0.50474507  0.39247072    -0.80100
O885        O  0.35620412  0.96306861  0.33930632    -0.78300
O886        O  0.31250669  0.94275647  0.39552034    -1.14400
O887        O  0.31814028  0.90133112  0.35271092    -0.73600
C888        C  0.29261039  0.87783820  0.36354740     0.97100
C889        C  0.28740869  0.96948847  0.45421312     0.93500
Al890      Al  0.31430619  0.97902612  0.38536779     1.55600
O891        O  0.30538279  0.91178097  0.45779976    -0.78200
C892        C  0.34122780  0.97324382  0.32109694     0.97700
C893        C  0.24691956  0.93403165  0.37446181     0.92500
O894        O  0.25011403  0.91093957  0.38369353    -0.83600
O895        O  0.37716938  0.60390452  0.11706838    -0.83000
C896        C  0.35459891  0.98324688  0.07962038     0.96300
O897        O  0.38054371  0.50435986  0.09342747    -0.72100
O898        O  0.40598430  0.55669088  0.05815234    -0.75700
Al899      Al  0.39422326  0.54799473  0.10737387     1.49000
C900        C  0.40718248  0.57848591  0.03932634     0.91600
O901        O  0.32942384  0.55030627  0.04083721    -0.81900
O902        O  0.30680296  0.53121628  0.14487374    -0.75500
Al903      Al  0.35377354  0.57576934  0.07984311     1.90100
O904        O  0.29705173  0.51012109  0.07503050    -0.74600
O905        O  0.33824777  0.50150350  0.15640148    -0.74400
O906        O  0.32977472  0.98404272  0.08467274    -0.80100
O907        O  0.38768130  0.53929462  0.15815926    -0.78300
O908        O  0.35650048  0.54449581  0.10070183    -1.14400
O909        O  0.41559706  0.59317152  0.12032632    -0.73600
C910        C  0.40501797  0.61188005  0.12557547     0.97100
C911        C  0.30351252  0.52541780  0.04579104     0.93500
Al912      Al  0.32126782  0.50964472  0.11423847     1.55600
O913        O  0.39045245  0.59048377  0.04801792    -0.78200
C914        C  0.36377137  0.51731688  0.17340108     0.97700
C915        C  0.30065098  0.55136244  0.13219869     0.92500
O916        O  0.31631792  0.56851768  0.10566285    -0.83600
O917        O  0.38844749  0.76757113  0.10121852    -0.83000
C918        C  0.00580372  0.86841896  0.07990161     0.96300
O919        O  0.47809037  0.86391736  0.07926503    -0.72100
O920        O  0.41762978  0.83025964  0.06875410    -0.75700
Al921      Al  0.44388367  0.83537345  0.10975038     1.49000
C922        C  0.41377377  0.81647156  0.03853294     0.91600
O923        O  0.45297572  0.76685537  0.04482464    -0.81900
O924        O  0.47523286  0.76527724  0.11783573    -0.75500
Al925      Al  0.42344259  0.77050215  0.07497080     1.90100
O926        O  0.49908315  0.80637464  0.06108202    -0.74600
O927        O  0.48370722  0.81304033  0.15993605    -0.74400
O928        O  0.01286361  0.85417234  0.10327504    -0.80100
O929        O  0.46879395  0.84824672  0.15422367    -0.78300
O930        O  0.45186636  0.80457728  0.09859435    -1.14400
O931        O  0.40775454  0.80821632  0.13907220    -0.73600
C932        C  0.38550700  0.78149917  0.12880842     0.97100
C933        C  0.48220695  0.78423190  0.03958594     0.93500
Al934      Al  0.48947606  0.80928345  0.10980464     1.55600
O935        O  0.41938282  0.79412462  0.03582811    -0.78200
C936        C  0.47982833  0.83454117  0.17332852     0.97700
C937        C  0.44834461  0.74086467  0.11964978     0.92500
O938        O  0.42415003  0.74200058  0.11018027    -0.83600
O939        O  0.10858585  0.86528274  0.38447664    -0.83000
C940        C  0.49146629  0.85345717  0.41357948     0.96300
O941        O  0.01386591  0.87807416  0.39919086    -0.72100
O942        O  0.06687071  0.90396933  0.43344241    -0.75700
Al943      Al  0.05632349  0.88785500  0.38548408     1.49000
C944        C  0.08625527  0.90323285  0.45503383     0.91600
O945        O  0.05238774  0.82595898  0.46065610    -0.81900
O946        O  0.03436452  0.79676810  0.35758671    -0.75500
Al947      Al  0.07922662  0.84586311  0.42126246     1.90100
O948        O  0.01235550  0.79209244  0.42721927    -0.74600
O949        O  0.00691815  0.82964902  0.34042681    -0.74400
O950        O  0.49000622  0.82731461  0.41080308    -0.80100
O951        O  0.04608859  0.87790708  0.33517913    -0.78300
O952        O  0.04991870  0.84966179  0.39686805    -1.14400
O953        O  0.10070642  0.90463476  0.37164667    -0.73600
C954        C  0.11770538  0.89175765  0.37027862     0.97100
C955        C  0.02722417  0.80016361  0.45699409     0.93500
Al956      Al  0.01395330  0.81469825  0.38483159     1.55600
O957        O  0.09592380  0.88413199  0.44959424    -0.78200
C958        C  0.02267373  0.85398594  0.32163653     0.97700
C959        C  0.05336359  0.79007610  0.37265673     0.92500
O960        O  0.06977992  0.80601925  0.39964835    -0.83600
C961        C  0.49027841  0.84468443  0.21104336    -0.07300
C962        C  0.52276333  0.86059473  0.21824551    -0.18500
C963        C  0.03424289  0.86521024  0.25405325     0.09900
C964        C  0.01275700  0.85362782  0.28346243    -0.07300
C965        C  0.98026070  0.83889835  0.27610048    -0.18500
C966        C  0.96887744  0.83465152  0.24033674     0.09900
S967        S  0.57621373  0.88323146  0.26010214    -0.33500
S968        S  0.92684273  0.81425769  0.23360960    -0.33500
H969        H  0.92796674  0.83400653  0.20533487     0.27900
H970        H  0.07371416  0.86159231  0.28665041     0.27900
H971        H  0.53926278  0.86801884  0.19570401     0.18500
H972        H  0.96352908  0.83008819  0.29842677     0.18500
C973        C  0.44519493  0.71003705  0.13007771    -0.07300
C974        C  0.42305763  0.69146223  0.15648593    -0.18500
C975        C  0.41329218  0.65947218  0.16029746     0.09900
C976        C  0.42536274  0.64520863  0.13678595    -0.07300
C977        C  0.45080629  0.66465407  0.11412837    -0.18500
C978        C  0.46103796  0.69700767  0.11077857     0.09900
S979        S  0.38347741  0.63710063  0.19368654    -0.33500
S980        S  0.49201492  0.72042995  0.07898660    -0.33500
H981        H  0.50016257  0.69749348  0.07018180     0.27900
H982        H  0.39380976  0.61535341  0.19886338     0.27900
H983        H  0.41273772  0.70164510  0.17366519     0.18500
H984        H  0.46022101  0.65389744  0.09602634     0.18500
C985        C  0.15034160  0.90796975  0.35594233    -0.07300
C986        C  0.17148633  0.93863856  0.36817880    -0.18500
C987        C  0.20405431  0.94938725  0.37109671     0.09900
C988        C  0.21532635  0.92841286  0.36289805    -0.07300
C989        C  0.19446333  0.89938039  0.34685840    -0.18500
C990        C  0.16278371  0.88970083  0.34168831     0.09900
S991        S  0.22972074  0.98837323  0.38922842    -0.33500
S992        S  0.13888494  0.85214524  0.31971524    -0.33500
H993        H  0.11324480  0.85645555  0.31260364     0.27900
H994        H  0.20790585  0.99897676  0.38753751     0.27900
H995        H  0.16219030  0.95288538  0.37903384     0.18500
H996        H  0.20235700  0.88321044  0.33992665     0.18500
C997        C  0.36408447  0.51082799  0.21232979    -0.07300
C998        C  0.37291469  0.98894941  0.22330386    -0.18500
C999        C  0.36636798  0.97638245  0.25869983     0.09900
C1000       C  0.35097089  0.98617932  0.28377935    -0.07300
C1001       C  0.34380645  0.50937408  0.27291465    -0.18500
C1002       C  0.34999801  0.52159530  0.23772559     0.09900
S1003       S  0.37593396  0.94631873  0.26897859    -0.33500
S1004       S  0.33749252  0.54951560  0.22669291    -0.33500
H1005       H  0.35540732  0.56173949  0.19489668     0.27900
H1006       H  0.34648754  0.92592972  0.28487103     0.27900
H1007       H  0.38316542  0.98019769  0.20355238     0.18500
H1008       H  0.33265988  0.51777361  0.29187668     0.18500
C1009       C  0.29067199  0.71869238  0.15329538    -0.07300
C1010       C  0.31384196  0.71187724  0.16432629    -0.18500
C1011       C  0.34573107  0.73489496  0.16341039     0.09900
C1012       C  0.35516161  0.76473802  0.14850473    -0.07300
C1013       C  0.33207164  0.77296904  0.14192962    -0.18500
C1014       C  0.29977986  0.75036381  0.14535538     0.09900
S1015       S  0.37361239  0.72396618  0.17859127    -0.33500
S1016       S  0.27052758  0.76135465  0.13585496    -0.33500
H1017       H  0.29169718  0.79356055  0.12985853     0.27900
H1018       H  0.39934770  0.75478090  0.18204430     0.27900
H1019       H  0.30735930  0.68798411  0.17108047     0.18500
H1020       H  0.33916396  0.79604462  0.13100441     0.18500
C1021       C  0.27325509  0.55349958  0.14537530    -0.07300
C1022       C  0.27890954  0.58030384  0.16502944    -0.18500
C1023       C  0.25637583  0.58983723  0.16605547     0.09900
C1024       C  0.22842453  0.57348990  0.14497913    -0.07300
C1025       C  0.22089081  0.54431330  0.12977153    -0.18500
C1026       C  0.24280811  0.53387016  0.13041997     0.09900
S1027       S  0.26630149  0.62529816  0.19119686    -0.33500
S1028       S  0.23193448  0.49718521  0.10780876    -0.33500
H1029       H  0.24863229  0.48882174  0.13208776     0.27900
H1030       H  0.23669419  0.62303559  0.18838903     0.27900
H1031       H  0.30184131  0.59515885  0.17734813     0.18500
H1032       H  0.19948773  0.53130391  0.11386265     0.18500
C1033       C  0.22835529  0.78410843  0.34164339    -0.07300
C1034       C  0.22273239  0.80747151  0.32797120    -0.18500
C1035       C  0.24716626  0.83899642  0.32647535     0.09900
C1036       C  0.27641331  0.84790827  0.34301285    -0.07300
C1037       C  0.28319834  0.82433444  0.35220404    -0.18500
C1038       C  0.25987570  0.79245502  0.34976857     0.09900
S1039       S  0.23982178  0.86741439  0.30468336    -0.33500
S1040       S  0.27116058  0.76387853  0.36100434    -0.33500
H1041       H  0.25225011  0.74240336  0.33379879     0.27900
H1042       H  0.27153306  0.89161913  0.30295195     0.27900
H1043       H  0.19911290  0.80144044  0.31994610     0.18500
H1044       H  0.30589841  0.83076419  0.36404650     0.18500
C1045       C  0.14925041  0.63089216  0.21096049    -0.07300
C1046       C  0.13292329  0.64688352  0.21892310    -0.18500
C1047       C  0.12885566  0.65370759  0.25487359     0.09900
C1048       C  0.14110913  0.64419642  0.28377023    -0.07300
C1049       C  0.15542022  0.62623406  0.27591319    -0.18500
C1050       C  0.15921135  0.61910651  0.23994579     0.09900
S1051       S  0.11227004  0.67865262  0.26182976    -0.33500
S1052       S  0.17999046  0.59800885  0.23284197    -0.33500
H1053       H  0.15661220  0.57526944  0.20987015     0.27900
H1054       H  0.13903326  0.70054790  0.28143797     0.27900
H1055       H  0.12528432  0.65612749  0.19686023     0.18500
H1056       H  0.16473291  0.61863213  0.29795788     0.18500
C1057       C  0.07998559  0.72104344  0.35787024    -0.07300
C1058       C  0.05264707  0.71318558  0.37787125    -0.18500
C1059       C  0.04073683  0.73386748  0.37963361     0.09900
C1060       C  0.05607853  0.76274994  0.36056066    -0.07300
C1061       C  0.08023581  0.76815914  0.33636868    -0.18500
C1062       C  0.09271478  0.74804118  0.33512659     0.09900
S1063       S  0.00791193  0.72366605  0.40953077    -0.33500
S1064       S  0.12737758  0.76068686  0.30731049    -0.33500
H1065       H  0.13061136  0.73433271  0.31285269     0.27900
H1066       H  0.99566325  0.73908100  0.38877893     0.27900
H1067       H  0.04273697  0.69281328  0.39560178     0.18500
H1068       H  0.09135347  0.78967264  0.32078456     0.18500
C1069       C  0.12038830  0.65021227  0.05390233    -0.07300
C1070       C  0.12395108  0.68054748  0.05276297    -0.18500
C1071       C  0.11345325  0.69080009  0.02311172     0.09900
C1072       C  0.09731722  0.66992224  0.99382662    -0.07300
C1073       C  0.09133331  0.63867446  0.99651526    -0.18500
C1074       C  0.10253474  0.62866829  0.02592263     0.09900
S1075       S  0.12472394  0.73180699  0.02302426    -0.33500
S1076       S  0.09555249  0.58902833  0.02430440    -0.33500
H1077       H  0.08499070  0.58249283  0.06061096     0.27900
H1078       H  0.13882780  0.73736241  0.98833982     0.27900
H1079       H  0.13749158  0.69751922  0.07391082     0.18500
H1080       H  0.07849788  0.62191897  0.97492718     0.18500
C1081       C  0.42883223  0.59006502  0.00734354    -0.07300
C1082       C  0.41881269  0.59706517  0.97469400    -0.18500
C1083       C  0.43847172  0.60772637  0.94384181     0.09900
C1084       C  0.46979726  0.61325023  0.94579304    -0.07300
C1085       C  0.47935238  0.60536233  0.97827856    -0.18500
C1086       C  0.45934577  0.59366902  0.00857597     0.09900
S1087       S  0.42164830  0.61279601  0.90262210    -0.33500
S1088       S  0.47531182  0.58659128  0.04925841    -0.33500
H1089       H  0.45592650  0.55367776  0.04621717     0.27900
H1090       H  0.43596505  0.60021708  0.88017286     0.27900
H1091       H  0.39518807  0.59350455  0.97291909     0.18500
H1092       H  0.50319330  0.60962992  0.98084759     0.18500
C1093       C  0.02000265  0.74280617  0.97067596    -0.07300
C1094       C  0.99203339  0.74191590  0.96035515    -0.18500
C1095       C  0.98085950  0.75859734  0.97993836     0.09900
C1096       C  0.49745821  0.77578098  0.01107060    -0.07300
C1097       C  0.52679661  0.77896564  0.01943252    -0.18500
C1098       C  0.53788540  0.76208703  0.00012412     0.09900
S1099       S  0.94609126  0.75811123  0.96333860    -0.33500
S1100       S  0.57330093  0.76390576  0.01670394    -0.33500
H1101       H  0.56201155  0.73154538  0.01138279     0.27900
H1102       H  0.95546153  0.78838659  0.97687655     0.27900
H1103       H  0.97915100  0.72873701  0.93637603     0.18500
H1104       H  0.53970839  0.79210229  0.04341597     0.18500
C1105       C  0.49155053  0.63557482  0.71224668    -0.07300
C1106       C  0.47461227  0.64313166  0.73685500    -0.18500
C1107       C  0.48239301  0.64774392  0.77368975     0.09900
C1108       C  0.00870087  0.64601061  0.78657212    -0.07300
C1109       C  0.02451105  0.63636273  0.76240839    -0.18500
C1110       C  0.01629810  0.63127119  0.72522096     0.09900
S1111       S  0.45747242  0.65565990  0.80271645    -0.33500
S1112       S  0.03960489  0.62157701  0.69559576    -0.33500
H1113       H  0.03831310  0.63808773  0.66507939     0.27900
H1114       H  0.95958919  0.63878517  0.83228030     0.27900
H1115       H  0.45518224  0.64577387  0.72713741     0.18500
H1116       H  0.04455820  0.63478035  0.77197286     0.18500
C1117       C  0.04002108  0.63966273  0.55218058    -0.07300
C1118       C  0.06920418  0.66804241  0.55484282    -0.18500
C1119       C  0.09097554  0.67930526  0.52589564     0.09900
C1120       C  0.08353106  0.66256754  0.49252608    -0.07300
C1121       C  0.05561479  0.63307249  0.49082356    -0.18500
C1122       C  0.03406525  0.62129734  0.51998269     0.09900
S1123       S  0.12780613  0.71507298  0.53344371    -0.33500
S1124       S  0.99874108  0.58335005  0.51435334    -0.33500
H1125       H  0.50588516  0.57563328  0.48002741     0.27900
H1126       H  0.14583485  0.70469417  0.51435446     0.27900
H1127       H  0.07486530  0.68226183  0.57938902     0.18500
H1128       H  0.05003609  0.61953021  0.46578900     0.18500
C1129       C  0.49551991  0.71915429  0.52025524    -0.07300
C1130       C  0.47547891  0.73155179  0.51447682    -0.18500
C1131       C  0.48620908  0.76014533  0.49697832     0.09900
C1132       C  0.01759409  0.77677586  0.48520285    -0.07300
C1133       C  0.03811230  0.76541767  0.49230492    -0.18500
C1134       C  0.02720482  0.73634805  0.50884386     0.09900
S1135       S  0.45890754  0.77417250  0.49011963    -0.33500
S1136       S  0.05409233  0.72157673  0.51141364    -0.33500
H1137       H  0.03107411  0.69006976  0.50407211     0.27900
H1138       H  0.48191114  0.80627345  0.48755706     0.27900
H1139       H  0.45137515  0.71925189  0.52424352     0.18500
H1140       H  0.06199056  0.77782918  0.48175983     0.18500
C1141       C  0.41704431  0.56329149  0.50367065    -0.07300
C1142       C  0.41645002  0.57481345  0.46877842    -0.18500
C1143       C  0.40628107  0.55506068  0.43797729     0.09900
C1144       C  0.39529889  0.52249458  0.44177014    -0.07300
C1145       C  0.39771385  0.51128669  0.47602486    -0.18500
C1146       C  0.40878421  0.53107664  0.50664462     0.09900
S1147       S  0.40796230  0.57295071  0.39459342    -0.33500
S1148       S  0.41024809  0.51262832  0.54845591    -0.33500
H1149       H  0.44225736  0.53441705  0.55484086     0.27900
H1150       H  0.41351041  0.55188560  0.37411411     0.27900
H1151       H  0.42374542  0.59946746  0.46532997     0.18500
H1152       H  0.38948490  0.48641572  0.47950017     0.18500
C1153       C  0.08499121  0.85086882  0.84724999    -0.07300
C1154       C  0.10812090  0.84336863  0.83721054    -0.18500
C1155       C  0.10216422  0.81228878  0.83838049     0.09900
C1156       C  0.07239608  0.78786765  0.84999024    -0.07300
C1157       C  0.04800062  0.79493802  0.85434582    -0.18500
C1158       C  0.05402114  0.82604667  0.85302616     0.09900
S1159       S  0.13384419  0.80560031  0.82652692    -0.33500
S1160       S  0.02219494  0.83300990  0.86366628    -0.33500
H1161       H  0.03621494  0.86319250  0.84810337     0.27900
H1162       H  0.11338668  0.77600070  0.81087225     0.27900
H1163       H  0.13199168  0.86225677  0.83224859     0.18500
H1164       H  0.02458993  0.77659727  0.86213683     0.18500
C1165       C  0.14938701  0.52878614  0.94330248    -0.07300
C1166       C  0.18008485  0.55537845  0.94397329    -0.18500
C1167       C  0.19099881  0.57704820  0.97304515     0.09900
C1168       C  0.17132000  0.57218659  0.00343608    -0.07300
C1169       C  0.14012967  0.54655647  0.00199648    -0.18500
C1170       C  0.12887411  0.52511275  0.97251615     0.09900
S1171       S  0.23010406  0.61058829  0.96908243    -0.33500
S1172       S  0.08858717  0.99284233  0.97379602    -0.33500
H1173       H  0.07876972  0.00323090  0.00425402     0.27900
H1174       H  0.22110291  0.63220363  0.98111215     0.27900
H1175       H  0.19626217  0.55921084  0.92183912     0.18500
H1176       H  0.12456740  0.54263858  0.02478882     0.18500
C1177       C  0.27908747  0.51395525  0.01863103    -0.07300
C1178       C  0.26806362  0.98342461  0.00582738    -0.18500
C1179       C  0.24026434  0.96786153  0.98593223     0.09900
C1180       C  0.22335428  0.98368099  0.97881707    -0.07300
C1181       C  0.23457881  0.51439246  0.99185311    -0.18500
C1182       C  0.26224489  0.52964588  0.01219917     0.09900
S1183       S  0.22780452  0.92846876  0.96927930    -0.33500
S1184       S  0.27476674  0.56808521  0.03166970    -0.33500
H1185       H  0.24771396  0.56948427  0.02217681     0.27900
H1186       H  0.25442000  0.92694875  0.98052709     0.27900
H1187       H  0.28097256  0.97151806  0.01247628     0.18500
H1188       H  0.22159662  0.52638037  0.98610945     0.18500
C1189       C  0.06878175  0.90394136  0.98772509    -0.07300
C1190       C  0.08105152  0.91083934  0.02346658    -0.18500
C1191       C  0.06129244  0.90211274  0.05422783     0.09900
C1192       C  0.02820559  0.88571946  0.04972002    -0.07300
C1193       C  0.01591538  0.88000214  0.01414826    -0.18500
C1194       C  0.03552305  0.88854721  0.98327579     0.09900
S1195       S  0.07972515  0.91276954  0.09852781    -0.33500
S1196       S  0.01709722  0.87725266  0.93882363    -0.33500
H1197       H  0.98556000  0.86074962  0.95053653     0.27900
H1198       H  0.05505453  0.91465407  0.11570407     0.27900
H1199       H  0.10634677  0.92316833  0.02758356     0.18500
H1200       H  0.99057345  0.86687742  0.01056073     0.18500
C1201       C  0.17440739  0.58834783  0.50129086    -0.07300
C1202       C  0.19478184  0.59971285  0.47108369    -0.18500
C1203       C  0.18793118  0.61247160  0.44058025     0.09900
C1204       C  0.16011000  0.61446588  0.43976799    -0.07300
C1205       C  0.13864165  0.60114061  0.46851434    -0.18500
C1206       C  0.14517471  0.58794106  0.49884699     0.09900
S1207       S  0.21619837  0.62670569  0.40385751    -0.33500
S1208       S  0.11518082  0.57189341  0.53354052    -0.33500
H1209       H  0.11586214  0.54371020  0.53626819     0.27900
H1210       H  0.19433915  0.62225880  0.37633692     0.27900
H1211       H  0.21682927  0.59963690  0.47157108     0.18500
H1212       H  0.11730865  0.60260320  0.46837952     0.18500
C1213       C  0.35735921  0.56800565  0.63567942    -0.07300
C1214       C  0.34714463  0.58370772  0.65929190    -0.18500
C1215       C  0.31585617  0.57761166  0.65831460     0.09900
C1216       C  0.29438903  0.55585545  0.63271076    -0.07300
C1217       C  0.30369059  0.53759364  0.61233829    -0.18500
C1218       C  0.33464780  0.54329856  0.61373021     0.09900
S1219       S  0.30489500  0.59832521  0.69012342    -0.33500
S1220       S  0.34504015  0.52122799  0.58299302    -0.33500
H1221       H  0.37158927  0.52622758  0.60308713     0.27900
H1222       H  0.27243222  0.57616753  0.68988914     0.27900
H1223       H  0.36424180  0.60267760  0.67637058     0.18500
H1224       H  0.28732552  0.52017906  0.59315615     0.18500
C1225       C  0.15913190  0.50902725  0.71086969    -0.07300
C1226       C  0.18190015  0.52656512  0.73727748    -0.18500
C1227       C  0.17746032  0.51735305  0.77375823     0.09900
C1228       C  0.14991310  0.98931264  0.78434358    -0.07300
C1229       C  0.12646881  0.97235206  0.75821146    -0.18500
C1230       C  0.13076347  0.98184045  0.72156391     0.09900
S1231       S  0.20789971  0.54247974  0.80548674    -0.33500
S1232       S  0.10086582  0.95632638  0.68949209    -0.33500
H1233       H  0.10433061  0.98001799  0.66549592     0.27900
H1234       H  0.18654801  0.53981546  0.83274078     0.27900
H1235       H  0.20367117  0.54737246  0.72923818     0.18500
H1236       H  0.10539971  0.95077073  0.76602123     0.18500
C1237       C  0.11756454  0.96444558  0.54994197    -0.07300
C1238       C  0.11462153  0.97579431  0.51586032    -0.18500
C1239       C  0.10512376  0.95664449  0.48461909     0.09900
C1240       C  0.09748034  0.92482589  0.48705544    -0.07300
C1241       C  0.09922194  0.91301089  0.52123501    -0.18500
C1242       C  0.10866845  0.93218379  0.55258509     0.09900
S1243       S  0.10599332  0.97514370  0.44191568    -0.33500
S1244       S  0.10818104  0.91377919  0.59514853    -0.33500
H1245       H  0.09843003  0.93166268  0.61556921     0.27900
H1246       H  0.11823377  0.95931963  0.42160267     0.27900
H1247       H  0.12202734  0.00049522  0.51275599     0.18500
H1248       H  0.09261344  0.88844353  0.52367503     0.18500
C1249       C  0.27475774  0.98301530  0.48004101    -0.07300
C1250       C  0.27423135  0.01004333  0.46886567    -0.18500
C1251       C  0.25581544  0.01995851  0.48696815     0.09900
C1252       C  0.23853066  0.50328409  0.51791181    -0.07300
C1253       C  0.23945072  0.47655199  0.52951546    -0.18500
C1254       C  0.25771061  0.46648386  0.51118576     0.09900
S1255       S  0.25420583  0.05308116  0.46823990    -0.33500
S1256       S  0.25956922  0.43349061  0.52977374    -0.33500
H1257       H  0.29059638  0.94392053  0.51801493     0.27900
H1258       H  0.22289503  0.04241948  0.47895709     0.27900
H1259       H  0.28660850  0.02239999  0.44439230     0.18500
H1260       H  0.22729074  0.46444795  0.55420165     0.18500
C1261       C  0.40353161  0.82750189  0.00614049    -0.07300
C1262       C  0.41362943  0.82473552  0.97105934    -0.18500
C1263       C  0.40649803  0.83677531  0.94004910     0.09900
C1264       C  0.38918686  0.85253486  0.94383644    -0.07300
C1265       C  0.37956906  0.85579170  0.97892620    -0.18500
C1266       C  0.38558623  0.84271746  0.00962336     0.09900
S1267       S  0.42035912  0.83149601  0.89649133    -0.33500
S1268       S  0.36694647  0.84362342  0.05167904    -0.33500
H1269       H  0.35843914  0.81269556  0.06174538     0.27900
H1270       H  0.42230471  0.85828167  0.88011640     0.27900
H1271       H  0.42751023  0.81343238  0.96769203     0.18500
H1272       H  0.36488653  0.86636144  0.98213885     0.18500
C1273       C  0.29039475  0.77871258  0.98676012    -0.07300
C1274       C  0.29447171  0.75276509  0.98088297    -0.18500
C1275       C  0.27935390  0.72640988  0.00311181     0.09900
C1276       C  0.25858572  0.72565775  0.03036713    -0.07300
C1277       C  0.25776641  0.75325230  0.03850433    -0.18500
C1278       C  0.27463764  0.78015391  0.01801907     0.09900
S1279       S  0.28772705  0.69513233  0.99513783    -0.33500
S1280       S  0.27433613  0.81521030  0.03230451    -0.33500
H1281       H  0.30404207  0.83595220  0.01721573     0.27900
H1282       H  0.29286241  0.69215563  0.03229820     0.27900
H1283       H  0.30779864  0.75214319  0.95760603     0.18500
H1284       H  0.24353407  0.75398102  0.06067772     0.18500
C1285       C  0.21591146  0.75913032  0.86744951    -0.07300
C1286       C  0.19866949  0.76153138  0.83835725    -0.18500
C1287       C  0.16688015  0.73857813  0.83282654     0.09900
C1288       C  0.15158228  0.71348947  0.85763781    -0.07300
C1289       C  0.17007691  0.70867091  0.88310116    -0.18500
C1290       C  0.20193158  0.73122269  0.88836108     0.09900
S1291       S  0.14614749  0.74333994  0.79522665    -0.33500
S1292       S  0.22220262  0.72521823  0.92553957    -0.33500
H1293       H  0.22786328  0.75289918  0.94357314     0.27900
H1294       H  0.11983678  0.71273072  0.79675339     0.27900
H1295       H  0.20964119  0.78183455  0.82066903     0.18500
H1296       H  0.15866838  0.68955955  0.90248865     0.18500
C1297       C  0.26636441  0.90383420  0.85666019    -0.07300
C1298       C  0.27602424  0.93455453  0.86825098    -0.18500
C1299       C  0.25421628  0.94496248  0.87256752     0.09900
C1300       C  0.22177739  0.92402281  0.86472401    -0.07300
C1301       C  0.21290775  0.89438321  0.84964369    -0.18500
C1302       C  0.23487936  0.88435342  0.84513534     0.09900
S1303       S  0.26790846  0.98352701  0.89250704    -0.33500
S1304       S  0.22088877  0.84522096  0.82754075    -0.33500
H1305       H  0.25074157  0.84979141  0.81827609     0.27900
H1306       H  0.29924223  0.99130789  0.89911134     0.27900
H1307       H  0.30003423  0.94916602  0.87774710     0.18500
H1308       H  0.18844675  0.87836081  0.84280284     0.18500
C1309       C  0.33606325  0.91830505  0.99192585    -0.07300
C1310       C  0.31756183  0.90843214  0.02373731    -0.18500
C1311       C  0.32556824  0.92774868  0.05480636     0.09900
C1312       C  0.35235710  0.95837309  0.05445028    -0.07300
C1313       C  0.37217317  0.96751627  0.02388893    -0.18500
C1314       C  0.36469600  0.94779298  0.99308344     0.09900
S1315       S  0.29989715  0.91239894  0.09384894    -0.33500
S1316       S  0.39273728  0.96205796  0.95631424    -0.33500
H1317       H  0.39310817  0.93368221  0.95332573     0.27900
H1318       H  0.32282132  0.93152568  0.11974299     0.27900
H1319       H  0.29604406  0.88578148  0.02422915     0.18500
H1320       H  0.39274543  0.99093855  0.02311501     0.18500
C1321       C  0.34190609  0.90017340  0.48797013    -0.07300
C1322       C  0.32762365  0.89776624  0.52211583    -0.18500
C1323       C  0.33824595  0.89038944  0.55420352     0.09900
C1324       C  0.36340134  0.88399617  0.55281893    -0.07300
C1325       C  0.37830325  0.88729934  0.51896460    -0.18500
C1326       C  0.36835846  0.89563077  0.48708224     0.09900
S1327       S  0.31862523  0.88985025  0.59599223    -0.33500
S1328       S  0.39049492  0.89937633  0.44634312    -0.33500
H1329       H  0.39813481  0.93076914  0.44054361     0.27900
H1330       H  0.34621978  0.90288234  0.61732297     0.27900
H1331       H  0.30792152  0.90183259  0.52409273     0.18500
H1332       H  0.39746301  0.88238558  0.51687342     0.18500
C1333       C  0.28864964  0.78263413  0.51130266    -0.07300
C1334       C  0.26233850  0.78589880  0.51813609    -0.18500
C1335       C  0.23586358  0.77108380  0.49556760     0.09900
C1336       C  0.23558035  0.75145253  0.46698350    -0.07300
C1337       C  0.26326457  0.75101296  0.45854604    -0.18500
C1338       C  0.29012930  0.76767578  0.47929133     0.09900
S1339       S  0.20344128  0.77790442  0.50378068    -0.33500
S1340       S  0.32555513  0.76893348  0.46370401    -0.33500
H1341       H  0.34538418  0.79940510  0.47776810     0.27900
H1342       H  0.21873014  0.80212532  0.52978129     0.27900
H1343       H  0.26175406  0.79834363  0.54232183     0.18500
H1344       H  0.26422156  0.73755114  0.43558544     0.18500
C1345       C  0.27627929  0.70921000  0.62785537    -0.07300
C1346       C  0.28066590  0.69055994  0.65342958    -0.18500
C1347       C  0.25739516  0.65889610  0.65876773     0.09900
C1348       C  0.23008554  0.64494974  0.63679900    -0.07300
C1349       C  0.22413489  0.66452591  0.61451524    -0.18500
C1350       C  0.24679421  0.69639604  0.60994459     0.09900
S1351       S  0.26427007  0.63663071  0.69253889    -0.33500
S1352       S  0.23862602  0.71820737  0.57673984    -0.33500
H1353       H  0.26392438  0.72277752  0.55451947     0.27900
H1354       H  0.23310393  0.61122574  0.69362942     0.27900
H1355       H  0.30265336  0.70037124  0.66843009     0.18500
H1356       H  0.20345382  0.65411271  0.59709570     0.18500
C1357       C  0.36624734  0.83845455  0.71380789    -0.07300
C1358       C  0.37033667  0.86788059  0.72402902    -0.18500
C1359       C  0.36159305  0.87265119  0.75890787     0.09900
C1360       C  0.34895422  0.84756010  0.78416726    -0.07300
C1361       C  0.34712752  0.81893103  0.77436770    -0.18500
C1362       C  0.35579677  0.81424118  0.73974241     0.09900
S1363       S  0.36458070  0.91012532  0.76823876    -0.33500
S1364       S  0.35219117  0.77649155  0.72974658    -0.33500
H1365       H  0.37542508  0.78743343  0.70241364     0.27900
H1366       H  0.33505491  0.89711754  0.78551530     0.27900
H1367       H  0.37800213  0.88640102  0.70388379     0.18500
H1368       H  0.33863622  0.79981146  0.79381556     0.18500
C1369       C  0.43591364  0.71426184  0.63011084    -0.07300
C1370       C  0.45752826  0.74512359  0.61874539    -0.18500
C1371       C  0.45002035  0.76918192  0.61993933     0.09900
C1372       C  0.42046432  0.76276255  0.63350530    -0.07300
C1373       C  0.40008149  0.73275825  0.64805507    -0.18500
C1374       C  0.40741249  0.70845153  0.64637841     0.09900
S1375       S  0.47713089  0.80620602  0.59881643    -0.33500
S1376       S  0.37983059  0.66993759  0.66382065    -0.33500
H1377       H  0.35679031  0.67707561  0.67552038     0.27900
H1378       H  0.46790895  0.82445501  0.61936717     0.27900
H1379       H  0.47947644  0.74999760  0.60602415     0.18500
H1380       H  0.37709572  0.72759730  0.65770904     0.18500
C1381       C  0.42952985  0.83544325  0.50107812    -0.07300
C1382       C  0.41777618  0.81987673  0.46755523    -0.18500
C1383       C  0.43618493  0.82927484  0.43595813     0.09900
C1384       C  0.46769288  0.85418818  0.43757738    -0.07300
C1385       C  0.47852978  0.87197319  0.46974539    -0.18500
C1386       C  0.45981498  0.86319427  0.50144572     0.09900
S1387       S  0.41917747  0.80684439  0.39475277    -0.33500
S1388       S  0.47596330  0.88719795  0.54198728    -0.33500
H1389       H  0.50363760  0.91138477  0.52605868     0.27900
H1390       H  0.44074322  0.83001381  0.37081471     0.27900
H1391       H  0.39456636  0.79920714  0.46608537     0.18500
H1392       H  0.50281135  0.89093612  0.47103739     0.18500
O1393       O  0.82814007  0.24235854  0.60514936    -0.83000
C1394       C  0.87076560  0.36832116  0.58332824     0.96300
O1395       O  0.85083851  0.35386542  0.60819150    -0.72100
O1396       O  0.81500376  0.30836250  0.56494560    -0.75700
Al1397     Al  0.82915605  0.30887377  0.61233196     1.49000
C1398       C  0.81033323  0.28815467  0.54102692     0.91600
O1399       O  0.88175500  0.29950171  0.53195603    -0.81900
O1400       O  0.90967739  0.30593243  0.63443005    -0.75500
Al1401     Al  0.85571041  0.27288260  0.57037573     1.90100
O1402       O  0.92123765  0.33200387  0.56576396    -0.74600
O1403       O  0.89004535  0.34644714  0.65530064    -0.74400
O1404       O  0.89484444  0.36522729  0.58159665    -0.80100
O1405       O  0.84026651  0.31001315  0.66141714    -0.78300
O1406       O  0.86180252  0.30515798  0.59761209    -1.14400
O1407       O  0.80001981  0.26446451  0.61836414    -0.73600
C1408       C  0.80312457  0.24042223  0.61741546     0.97100
C1409       C  0.90983370  0.32184880  0.53458547     0.93500
Al1410     Al  0.90094039  0.33526378  0.60886265     1.55600
O1411       O  0.82170299  0.27026894  0.54390553    -0.78200
C1412       C  0.86580990  0.33113785  0.67495127     0.97700
C1413       C  0.90566677  0.28057126  0.61977968     0.92500
O1414       O  0.88880082  0.26915766  0.59164729    -0.83600
O1415       O  0.74753952  0.31169069  0.88893182    -0.83000
C1416       C  0.87422388  0.35923949  0.91256225     0.96300
O1417       O  0.86037442  0.33851174  0.88823450    -0.72100
O1418       O  0.81547527  0.30362936  0.93273484    -0.75700
Al1419     Al  0.81526681  0.31541355  0.88453068     1.49000
C1420       C  0.79509432  0.29917454  0.95623169     0.91600
O1421       O  0.80241633  0.36940485  0.96131166    -0.81900
O1422       O  0.81009819  0.39432037  0.85823829    -0.75500
Al1423     Al  0.77717369  0.34129698  0.92319912     1.90100
O1424       O  0.83569085  0.40822337  0.92752799    -0.74600
O1425       O  0.85127270  0.37477081  0.83972610    -0.74400
O1426       O  0.86986772  0.38249813  0.91376696    -0.80100
O1427       O  0.81599197  0.32451555  0.83492389    -0.78300
O1428       O  0.81015650  0.34779085  0.89723981    -1.14400
O1429       O  0.77114448  0.28454670  0.87888247    -0.73600
C1430       C  0.74658793  0.28673628  0.87819288     0.97100
C1431       C  0.82437173  0.39761266  0.95859471     0.93500
Al1432     Al  0.83960360  0.38693108  0.88524143     1.55600
O1433       O  0.77622519  0.30926326  0.95199399    -0.78200
C1434       C  0.83773449  0.34948005  0.82110089     0.97700
C1435       C  0.78391588  0.38922929  0.87132683     0.92500
O1436       O  0.77201511  0.37229578  0.89916750    -0.83600
O1437       O  0.76130743  0.07633941  0.61345740    -0.83000
C1438       C  0.63599905  0.48817421  0.57892858     0.96300
O1439       O  0.65174313  0.48259880  0.60174019    -0.72100
O1440       O  0.70179325  0.99897762  0.56216832    -0.75700
Al1441     Al  0.69601425  0.00836427  0.61042548     1.49000
C1442       C  0.72541268  0.01678898  0.54308514     0.91600
O1443       O  0.70888000  0.07527548  0.53427845    -0.81900
O1444       O  0.69177255  0.08920073  0.63546339    -0.75500
Al1445     Al  0.73285489  0.07428447  0.57550787     1.90100
O1446       O  0.67069227  0.07528860  0.56467398    -0.74600
O1447       O  0.65444338  0.02785124  0.65272140    -0.74400
O1448       O  0.63911828  0.01529930  0.57806097    -0.80100
O1449       O  0.69007234  0.01370643  0.65997879    -0.78300
O1450       O  0.69879957  0.04494885  0.59820831    -1.14400
O1451       O  0.73977147  0.02532715  0.62093243    -0.73600
C1452       C  0.76335192  0.05270502  0.62344523     0.97100
C1453       C  0.68501996  0.07880768  0.53498442     0.93500
Al1454     Al  0.66648174  0.05113629  0.60735973     1.55600
O1455       O  0.74043997  0.04610049  0.54828911    -0.78200
C1456       C  0.66809656  0.01717615  0.67247220     0.97700
C1457       C  0.71729502  0.11226177  0.62373668     0.92500
O1458       O  0.73256200  0.10870009  0.59831972    -0.83600
O1459       O  0.67038541  0.40943268  0.88746146    -0.83000
C1460       C  0.64199749  0.00385630  0.91474590     0.96300
O1461       O  0.66336860  0.00801070  0.89238768    -0.72100
O1462       O  0.69357483  0.48905414  0.93288300    -0.75700
Al1463     Al  0.67937738  0.48000882  0.88480970     1.49000
C1464       C  0.69683346  0.47062316  0.95358943     0.91600
O1465       O  0.61851333  0.41715100  0.96047716    -0.81900
O1466       O  0.59624498  0.40475246  0.85455077    -0.75500
Al1467     Al  0.64405967  0.41491100  0.92210990     1.90100
O1468       O  0.58275991  0.41650159  0.92474582    -0.74600
O1469       O  0.62188230  0.46691202  0.83978686    -0.74400
O1470       O  0.61625889  0.47778833  0.91431276    -0.80100
O1471       O  0.66994165  0.47548482  0.83480170    -0.78300
O1472       O  0.64367944  0.44538543  0.89667043    -1.14400
O1473       O  0.70279655  0.45931933  0.87575831    -0.73600
C1474       C  0.69673352  0.43113275  0.87582124     0.97100
C1475       C  0.59113926  0.41301606  0.95611927     0.93500
Al1476     Al  0.60703959  0.44184039  0.88401742     1.55600
O1477       O  0.67944152  0.44133148  0.95068003    -0.78200
C1478       C  0.64684029  0.47628820  0.82136498     0.97700
C1479       C  0.59672284  0.38085951  0.86720299     0.92500
O1480       O  0.60885195  0.38188555  0.89789278    -0.83600
O1481       O  0.92083712  0.16268059  0.60737123    -0.83000
C1482       C  0.51491001  0.13322692  0.58020241     0.96300
O1483       O  0.51926253  0.15484323  0.60248343    -0.72100
O1484       O  0.00137389  0.18713798  0.56350387    -0.75700
Al1485     Al  0.99124677  0.17096293  0.61095084     1.49000
C1486       C  0.98314349  0.19105945  0.54305760     0.91600
O1487       O  0.92961320  0.11261698  0.53242831    -0.81900
O1488       O  0.91349854  0.08596142  0.63636331    -0.75500
Al1489     Al  0.92674221  0.13727110  0.57167805     1.90100
O1490       O  0.92786122  0.07583917  0.56693745    -0.74600
O1491       O  0.97566752  0.11125186  0.65382439    -0.74400
O1492       O  0.98855440  0.10786427  0.58002785    -0.80100
O1493       O  0.98549993  0.15969218  0.66038159    -0.78300
O1494       O  0.95646159  0.13570678  0.59747502    -1.14400
O1495       O  0.97066968  0.19463983  0.62079692    -0.73600
C1496       C  0.94243094  0.18866270  0.62018229     0.97100
C1497       C  0.92544974  0.08512516  0.53584045     0.93500
Al1498     Al  0.95199583  0.09833025  0.60873068     1.55600
O1499       O  0.95381667  0.17340279  0.54516666    -0.78200
C1500       C  0.98401592  0.13536787  0.67343738     0.97700
C1501       C  0.88988649  0.08604599  0.62193573     0.92500
O1502       O  0.89290473  0.10166843  0.59352782    -0.83600
O1503       O  0.58925186  0.25332534  0.87529794    -0.83000
C1504       C  0.99453314  0.13202342  0.91800243     0.96300
O1505       O  0.99028306  0.14910815  0.89590443    -0.72100
O1506       O  0.51210600  0.20214864  0.93034641    -0.75700
Al1507     Al  0.51875089  0.19199438  0.88309314     1.49000
C1508       C  0.53147648  0.22668881  0.94713306     0.91600
O1509       O  0.58532409  0.20418314  0.95862576    -0.81900
O1510       O  0.59489664  0.17925122  0.85928868    -0.75500
Al1511     Al  0.58565886  0.22660240  0.91556047     1.90100
O1512       O  0.58126459  0.16254957  0.93151390    -0.74600
O1513       O  0.53248527  0.14458383  0.84333902    -0.74400
O1514       O  0.52091179  0.13333384  0.91874367    -0.80100
O1515       O  0.52130517  0.18204263  0.83457298    -0.78300
O1516       O  0.55405996  0.19229092  0.89528553    -1.14400
O1517       O  0.53867607  0.23497053  0.86825711    -0.73600
C1518       C  0.56677666  0.25682742  0.86397865     0.97100
C1519       C  0.58740237  0.17952217  0.95976032     0.93500
Al1520     Al  0.55695527  0.15767807  0.88844245     1.55600
O1521       O  0.56054765  0.23942446  0.94115943    -0.78200
C1522       C  0.52173890  0.15806562  0.82333739     0.97700
C1523       C  0.61939376  0.20413847  0.86998105     0.92500
O1524       O  0.61778073  0.22165728  0.89404601    -0.83600
O1525       O  0.62691988  0.22975069  0.38282364    -0.83000
C1526       C  0.65673514  0.13643508  0.41488052     0.96300
O1527       O  0.63028843  0.12988709  0.40084097    -0.72100
O1528       O  0.60232433  0.15421420  0.43673199    -0.75700
Al1529     Al  0.61391776  0.15783936  0.38739399     1.49000
C1530       C  0.60334940  0.17431911  0.45875966     0.91600
O1531       O  0.68125385  0.22739317  0.45174556    -0.81900
O1532       O  0.69569770  0.22805746  0.34480957    -0.75500
Al1533     Al  0.65352741  0.22643998  0.41582089     1.90100
O1534       O  0.71301013  0.22359479  0.41321611    -0.74600
O1535       O  0.66831586  0.16551937  0.33866626    -0.74400
O1536       O  0.68084613  0.16296645  0.41005039    -0.80100
O1537       O  0.61984936  0.15576849  0.33629081    -0.78300
O1538       O  0.65090440  0.19290881  0.39359016    -1.14400
O1539       O  0.59104933  0.17991309  0.37480211    -0.73600
C1540       C  0.60035445  0.20912480  0.37147132     0.97100
C1541       C  0.70834605  0.23296450  0.44328641     0.93500
Al1542     Al  0.68620420  0.19458355  0.37793601     1.55600
O1543       O  0.61979305  0.20336752  0.45120036    -0.78200
C1544       C  0.64288481  0.15554773  0.32153237     0.97700
C1545       C  0.70174798  0.25475485  0.35680686     0.92500
O1546       O  0.68810841  0.25687706  0.38537010    -0.83600
O1547       O  0.73590442  0.11759975  0.11432046    -0.83000
C1548       C  0.64202811  0.14568574  0.07880534     0.96300
O1549       O  0.63564942  0.11906317  0.09189329    -0.72100
O1550       O  0.66127024  0.09100775  0.05853358    -0.75700
Al1551     Al  0.66372465  0.10336656  0.10761112     1.49000
C1552       C  0.68189849  0.09227510  0.03730844     0.91600
O1553       O  0.73368452  0.17097845  0.04420009    -0.81900
O1554       O  0.73421671  0.18688260  0.15067664    -0.75500
Al1555     Al  0.73264747  0.14349500  0.08061112     1.90100
O1556       O  0.72861158  0.20241663  0.08226570    -0.74600
O1557       O  0.67154171  0.15829343  0.15687683    -0.74400
O1558       O  0.66813980  0.16989332  0.08551163    -0.80100
O1559       O  0.65999194  0.10932546  0.15813199    -0.78300
O1560       O  0.69875788  0.14066791  0.10211513    -1.14400
O1561       O  0.68625117  0.08149713  0.12293714    -0.73600
C1562       C  0.71559422  0.09166105  0.12725961     0.97100
C1563       C  0.73899589  0.19803145  0.05284014     0.93500
Al1564     Al  0.70009705  0.17598648  0.11755474     1.55600
O1565       O  0.71065575  0.10942541  0.04561126    -0.78200
C1566       C  0.66058502  0.13254954  0.17334389     0.97700
C1567       C  0.76076784  0.19247197  0.13870776     0.92500
O1568       O  0.76255856  0.17820852  0.11064158    -0.83600
O1569       O  0.77955176  0.37900125  0.39281550    -0.83000
C1570       C  0.87552879  0.99887097  0.41363155     0.96300
O1571       O  0.87243354  0.47163545  0.41357877    -0.72100
O1572       O  0.84107175  0.41058932  0.42367577    -0.75700
Al1573     Al  0.84453425  0.43716916  0.38301436     1.49000
C1574       C  0.82884093  0.40787486  0.45477389     0.91600
O1575       O  0.77252510  0.44014806  0.44883070    -0.81900
O1576       O  0.77002986  0.46178988  0.37691878    -0.75500
Al1577     Al  0.77967637  0.41274612  0.41894802     1.90100
O1578       O  0.81033033  0.48754494  0.43444511    -0.74600
O1579       O  0.81842028  0.47434624  0.33536919    -0.74400
O1580       O  0.85889025  0.00474476  0.39242682    -0.80100
O1581       O  0.85617342  0.46306147  0.33928500    -0.78300
O1582       O  0.81250735  0.44276185  0.39551547    -1.14400
O1583       O  0.81809967  0.40132540  0.35266599    -0.73600
C1584       C  0.79257142  0.37783395  0.36350345     0.97100
C1585       C  0.78742680  0.46947790  0.45425127     0.93500
Al1586     Al  0.81433959  0.47905835  0.38542458     1.55600
O1587       O  0.80534532  0.41174951  0.45776402    -0.78200
C1588       C  0.84121728  0.47328111  0.32110956     0.97700
C1589       C  0.74695061  0.43410210  0.37446951     0.92500
O1590       O  0.75013801  0.41099493  0.38365039    -0.83600
O1591       O  0.87714834  0.10384261  0.11713521    -0.83000
C1592       C  0.85463033  0.48329789  0.07961387     0.96300
O1593       O  0.88050884  0.00430366  0.09343808    -0.72100
O1594       O  0.90592949  0.05662460  0.05813338    -0.75700
Al1595     Al  0.89420034  0.04794456  0.10736642     1.49000
C1596       C  0.90714982  0.07844372  0.03933426     0.91600
O1597       O  0.82942007  0.05030590  0.04087020    -0.81900
O1598       O  0.80678871  0.03116871  0.14489854    -0.75500
Al1599     Al  0.85376232  0.07574069  0.07988690     1.90100
O1600       O  0.79703667  0.01010320  0.07503983    -0.74600
O1601       O  0.83823835  0.00145584  0.15640206    -0.74400
O1602       O  0.82980217  0.48408368  0.08467990    -0.80100
O1603       O  0.88767404  0.03925215  0.15815134    -0.78300
O1604       O  0.85648024  0.04445309  0.10071614    -1.14400
O1605       O  0.91559345  0.09313229  0.12030536    -0.73600
C1606       C  0.90500958  0.11183351  0.12559184     0.97100
C1607       C  0.80350523  0.02542009  0.04581225     0.93500
Al1608     Al  0.82124765  0.00960349  0.11424648     1.55600
O1609       O  0.89044827  0.09046631  0.04806148    -0.78200
C1610       C  0.86376782  0.01727027  0.17339516     0.97700
C1611       C  0.80063705  0.05131829  0.13223583     0.92500
O1612       O  0.81630485  0.06848183  0.10570614    -0.83600
O1613       O  0.88841068  0.26756913  0.10123274    -0.83000
C1614       C  0.50580054  0.36840744  0.07990867     0.96300
O1615       O  0.97808530  0.36390610  0.07928390    -0.72100
O1616       O  0.91762113  0.33026628  0.06877857    -0.75700
Al1617     Al  0.94387555  0.33535872  0.10976886     1.49000
C1618       C  0.91376075  0.31648016  0.03855428     0.91600
O1619       O  0.95290224  0.26681159  0.04482115    -0.81900
O1620       O  0.97518919  0.26522857  0.11776789    -0.75500
Al1621     Al  0.92339475  0.27048401  0.07497651     1.90100
O1622       O  0.99902033  0.30634244  0.06102026    -0.74600
O1623       O  0.98371210  0.31299866  0.15990714    -0.74400
O1624       O  0.51285688  0.35413982  0.10325597    -0.80100
O1625       O  0.96879272  0.34820506  0.15423305    -0.78300
O1626       O  0.95183835  0.30455442  0.09859134    -1.14400
O1627       O  0.90774425  0.30820561  0.13909682    -0.73600
C1628       C  0.88548393  0.28149622  0.12883107     0.97100
C1629       C  0.98212826  0.28418209  0.03955044     0.93500
Al1630     Al  0.98944819  0.30924450  0.10976305     1.55600
O1631       O  0.91934790  0.29411924  0.03584317    -0.78200
C1632       C  0.97983808  0.33449823  0.17331729     0.97700
C1633       C  0.94829555  0.24082339  0.11960320     0.92500
O1634       O  0.92409955  0.24197711  0.11018145    -0.83600
O1635       O  0.60860444  0.36530360  0.38452582    -0.83000
C1636       C  0.99148234  0.35348284  0.41358309     0.96300
O1637       O  0.51387717  0.37809378  0.39919025    -0.72100
O1638       O  0.56687145  0.40396861  0.43345260    -0.75700
Al1639     Al  0.55633458  0.38786784  0.38548941     1.49000
C1640       C  0.58623151  0.40321016  0.45506473     0.91600
O1641       O  0.55232666  0.32590350  0.46062783    -0.81900
O1642       O  0.53436250  0.29679417  0.35752881    -0.75500
Al1643     Al  0.57920207  0.34584404  0.42126778     1.90100
O1644       O  0.51231629  0.29206917  0.42714626    -0.74600
O1645       O  0.50692210  0.32969176  0.34041315    -0.74400
O1646       O  0.99000633  0.32733321  0.41078411    -0.80100
O1647       O  0.54611695  0.37793606  0.33517326    -0.78300
O1648       O  0.54991518  0.34966624  0.39685845    -1.14400
O1649       O  0.60071751  0.40464640  0.37167197    -0.73600
C1650       C  0.61772474  0.39177905  0.37032661     0.97100
C1651       C  0.52715240  0.30012180  0.45693910     0.93500
Al1652     Al  0.51394569  0.31471437  0.38479381     1.55600
O1653       O  0.59587520  0.38408674  0.44964499    -0.78200
C1654       C  0.52269470  0.35402434  0.32162609     0.97700
C1655       C  0.55336930  0.29010225  0.37258319     0.92500
O1656       O  0.56976930  0.30602227  0.39959725    -0.83600
C1657       C  0.99030682  0.34464525  0.21102697    -0.07300
C1658       C  0.02279296  0.36051090  0.21822211    -0.18500
C1659       C  0.53427142  0.36516622  0.25403542     0.09900
C1660       C  0.51278773  0.35366104  0.28344886    -0.07300
C1661       C  0.48029350  0.33896585  0.27608938    -0.18500
C1662       C  0.46890772  0.33468094  0.24032466     0.09900
S1663       S  0.07623956  0.38311753  0.26008469    -0.33500
S1664       S  0.42687276  0.31432489  0.23360907    -0.33500
H1665       H  0.42801568  0.33408049  0.20533250     0.27900
H1666       H  0.57369516  0.36150218  0.28667808     0.27900
H1667       H  0.03928541  0.36787474  0.19568113     0.18500
H1668       H  0.46356606  0.33020803  0.29841795     0.18500
C1669       C  0.94513854  0.20998838  0.13001515    -0.07300
C1670       C  0.92300319  0.19141458  0.15642480    -0.18500
C1671       C  0.91327232  0.15943607  0.16027464     0.09900
C1672       C  0.92535108  0.14517060  0.13677618    -0.07300
C1673       C  0.95077676  0.16461312  0.11409583    -0.18500
C1674       C  0.96098994  0.19696144  0.11072371     0.09900
S1675       S  0.88348756  0.13707596  0.19369776    -0.33500
S1676       S  0.99195269  0.22037506  0.07891350    -0.33500
H1677       H  0.00012091  0.19744860  0.07013579     0.27900
H1678       H  0.89383941  0.11534494  0.19888410     0.27900
H1679       H  0.91265643  0.20159128  0.17358143     0.18500
H1680       H  0.96019470  0.15385462  0.09599656     0.18500
C1681       C  0.65036420  0.40800127  0.35599742    -0.07300
C1682       C  0.67150223  0.43868078  0.36821383    -0.18500
C1683       C  0.70407817  0.44945312  0.37109851     0.09900
C1684       C  0.71536151  0.42848898  0.36289818    -0.07300
C1685       C  0.69450385  0.39945119  0.34686701    -0.18500
C1686       C  0.66281600  0.38974561  0.34173233     0.09900
S1687       S  0.72974441  0.48846145  0.38917101    -0.33500
S1688       S  0.63892736  0.35217639  0.31978651    -0.33500
H1689       H  0.61327539  0.35646695  0.31267239     0.27900
H1690       H  0.70792387  0.49905584  0.38743201     0.27900
H1691       H  0.66220056  0.45292098  0.37907011     0.18500
H1692       H  0.70240857  0.38329414  0.33992363     0.18500
C1693       C  0.86409090  0.01078653  0.21232328    -0.07300
C1694       C  0.87286307  0.48895566  0.22330134    -0.18500
C1695       C  0.86629647  0.47637557  0.25868956     0.09900
C1696       C  0.85094557  0.48621050  0.28378627    -0.07300
C1697       C  0.84379406  0.00931444  0.27289837    -0.18500
C1698       C  0.84999074  0.02154078  0.23771421     0.09900
S1699       S  0.87575042  0.44622645  0.26892661    -0.33500
S1700       S  0.83749031  0.04946453  0.22668373    -0.33500
H1701       H  0.85544064  0.06171666  0.19491578     0.27900
H1702       H  0.84628331  0.42588735  0.28480695     0.27900
H1703       H  0.88308506  0.48018109  0.20354299     0.18500
H1704       H  0.83262576  0.01769784  0.29185391     0.18500
C1705       C  0.79065427  0.21867475  0.15335647    -0.07300
C1706       C  0.81383795  0.21188883  0.16442382    -0.18500
C1707       C  0.84572565  0.23492085  0.16349698     0.09900
C1708       C  0.85514002  0.26474198  0.14853497    -0.07300
C1709       C  0.83203642  0.27294631  0.14191846    -0.18500
C1710       C  0.79974865  0.25033454  0.14536681     0.09900
S1711       S  0.87362807  0.22404228  0.17875353    -0.33500
S1712       S  0.77048038  0.26130322  0.13586403    -0.33500
H1713       H  0.79163921  0.29346681  0.12959420     0.27900
H1714       H  0.89935539  0.25486823  0.18213603     0.27900
H1715       H  0.80736855  0.18800981  0.17122342     0.18500
H1716       H  0.83911756  0.29600932  0.13096110     0.18500
C1717       C  0.77324411  0.05345463  0.14542163    -0.07300
C1718       C  0.77890745  0.08026895  0.16505890    -0.18500
C1719       C  0.75638125  0.08981131  0.16607270     0.09900
C1720       C  0.72842690  0.07345918  0.14500319    -0.07300
C1721       C  0.72088183  0.04427199  0.12981830    -0.18500
C1722       C  0.74279334  0.03382192  0.13047711     0.09900
S1723       S  0.76632354  0.12528863  0.19118749    -0.33500
S1724       S  0.73190937  0.99712516  0.10788865    -0.33500
H1725       H  0.74861632  0.98877284  0.13216738     0.27900
H1726       H  0.73672944  0.12305193  0.18835645     0.27900
H1727       H  0.80184202  0.09512615  0.17736855     0.18500
H1728       H  0.69947359  0.03125775  0.11391569     0.18500
C1729       C  0.72834516  0.28408742  0.34165539    -0.07300
C1730       C  0.72270283  0.30743509  0.32797496    -0.18500
C1731       C  0.74712490  0.33896348  0.32645641     0.09900
C1732       C  0.77638162  0.34789707  0.34298054    -0.07300
C1733       C  0.78318533  0.32433706  0.35217961    -0.18500
C1734       C  0.75987183  0.29245199  0.34976954     0.09900
S1735       S  0.73975458  0.36735686  0.30464663    -0.33500
S1736       S  0.77117343  0.26389225  0.36102812    -0.33500
H1737       H  0.75225493  0.24239414  0.33384502     0.27900
H1738       H  0.77146365  0.39156294  0.30287900     0.27900
H1739       H  0.69907856  0.30138950  0.31995867     0.18500
H1740       H  0.80589387  0.33078339  0.36401384     0.18500
C1741       C  0.64922160  0.13080047  0.21099977    -0.07300
C1742       C  0.63282217  0.14671869  0.21895934    -0.18500
C1743       C  0.62875742  0.15355420  0.25490667     0.09900
C1744       C  0.64110631  0.14414148  0.28380244    -0.07300
C1745       C  0.65549058  0.12624563  0.27594962    -0.18500
C1746       C  0.65926182  0.11909262  0.23998699     0.09900
S1747       S  0.61199393  0.17834922  0.26184762    -0.33500
S1748       S  0.68010009  0.09805348  0.23288323    -0.33500
H1749       H  0.65674320  0.07528875  0.20991331     0.27900
H1750       H  0.63860440  0.20024722  0.28166226     0.27900
H1751       H  0.62511370  0.15589536  0.19688827     0.18500
H1752       H  0.66486391  0.11870672  0.29799220     0.18500
C1753       C  0.58002439  0.22109305  0.35776312    -0.07300
C1754       C  0.55267273  0.21322086  0.37774309    -0.18500
C1755       C  0.54075706  0.23389708  0.37951296     0.09900
C1756       C  0.55609809  0.26278741  0.36045884    -0.07300
C1757       C  0.58026650  0.26821030  0.33627322    -0.18500
C1758       C  0.59275999  0.24810117  0.33503330     0.09900
S1759       S  0.50793089  0.22368215  0.40941149    -0.33500
S1760       S  0.62742345  0.26075955  0.30720919    -0.33500
H1761       H  0.63081112  0.23451317  0.31290260     0.27900
H1762       H  0.49567019  0.23908585  0.38865907     0.27900
H1763       H  0.54275605  0.19283996  0.39546093     0.18500
H1764       H  0.59137765  0.28972270  0.32069606     0.18500
C1765       C  0.62039980  0.15015384  0.05388684    -0.07300
C1766       C  0.62392371  0.18047306  0.05276867    -0.18500
C1767       C  0.61341885  0.19072341  0.02312150     0.09900
C1768       C  0.59732226  0.16986049  0.99381038    -0.07300
C1769       C  0.59139638  0.13863066  0.99646161    -0.18500
C1770       C  0.60259897  0.12862580  0.02586941     0.09900
S1771       S  0.62461832  0.23171150  0.02308401    -0.33500
S1772       S  0.59568098  0.08900981  0.02421029    -0.33500
H1773       H  0.58506300  0.08241801  0.06049281     0.27900
H1774       H  0.63875222  0.23732355  0.98841294     0.27900
H1775       H  0.63743025  0.19743462  0.07394007     0.18500
H1776       H  0.57859730  0.12188617  0.97484959     0.18500
C1777       C  0.92879400  0.09002205  0.00734506    -0.07300
C1778       C  0.91878636  0.09706333  0.97471453    -0.18500
C1779       C  0.93843906  0.10772040  0.94385616     0.09900
C1780       C  0.96974947  0.11319470  0.94578093    -0.07300
C1781       C  0.97929094  0.10526719  0.97824885    -0.18500
C1782       C  0.95929005  0.09358194  0.00855210     0.09900
S1783       S  0.92162544  0.11285512  0.90266698    -0.33500
S1784       S  0.97524554  0.08645993  0.04921360    -0.33500
H1785       H  0.95583187  0.05355129  0.04615246     0.27900
H1786       H  0.93586472  0.10021297  0.88019006     0.27900
H1787       H  0.89517345  0.09353898  0.97295890     0.18500
H1788       H  0.00312024  0.10949655  0.98080111     0.18500
C1789       C  0.51988202  0.24265155  0.97074886    -0.07300
C1790       C  0.49188323  0.24170705  0.96044474    -0.18500
C1791       C  0.48071822  0.25842044  0.97997733     0.09900
C1792       C  0.99735507  0.27569064  0.01104718    -0.07300
C1793       C  0.02671132  0.27891172  0.01939470    -0.18500
C1794       C  0.03778401  0.26199117  0.00014671     0.09900
S1795       S  0.44589427  0.25783584  0.96339796    -0.33500
S1796       S  0.07321029  0.26384194  0.01674419    -0.33500
H1797       H  0.06193109  0.23147787  0.01147220     0.27900
H1798       H  0.45522253  0.28812599  0.97684930     0.27900
H1799       H  0.47897426  0.22846819  0.93651067     0.18500
H1800       H  0.03965078  0.29210883  0.04333643     0.18500
C1801       C  0.99151480  0.13557502  0.71226995    -0.07300
C1802       C  0.97458693  0.14313909  0.73688481    -0.18500
C1803       C  0.98237737  0.14775273  0.77371436     0.09900
C1804       C  0.50868760  0.14602024  0.78658231    -0.07300
C1805       C  0.52448767  0.13636370  0.76241423    -0.18500
C1806       C  0.51626294  0.13126627  0.72523093     0.09900
S1807       S  0.95746125  0.15566315  0.80275477    -0.33500
S1808       S  0.53954659  0.12154612  0.69559894    -0.33500
H1809       H  0.53822438  0.13801881  0.66506103     0.27900
H1810       H  0.45955945  0.13875981  0.83228896     0.27900
H1811       H  0.95515566  0.14578262  0.72717702     0.18500
H1812       H  0.54453192  0.13477387  0.77197280     0.18500
C1813       C  0.53991895  0.13969810  0.55215535    -0.07300
C1814       C  0.56913719  0.16803602  0.55484192    -0.18500
C1815       C  0.59088575  0.17931673  0.52586891     0.09900
C1816       C  0.58340889  0.16261503  0.49247078    -0.07300
C1817       C  0.55544724  0.13316216  0.49073239    -0.18500
C1818       C  0.53386244  0.12143112  0.51985776     0.09900
S1819       S  0.62775310  0.21503742  0.53344066    -0.33500
S1820       S  0.49853480  0.08349406  0.51422232    -0.33500
H1821       H  0.00233795  0.07891280  0.47708597     0.27900
H1822       H  0.64574289  0.20461538  0.51434487     0.27900
H1823       H  0.57484184  0.18220882  0.57942710     0.18500
H1824       H  0.54994697  0.11953816  0.46576899     0.18500
C1825       C  0.99533213  0.21913376  0.52028596    -0.07300
C1826       C  0.97530220  0.23153144  0.51442747    -0.18500
C1827       C  0.98605599  0.26010620  0.49686996     0.09900
C1828       C  0.51746687  0.27672828  0.48514741    -0.07300
C1829       C  0.53796184  0.26535457  0.49230308    -0.18500
C1830       C  0.52702554  0.23629592  0.50887343     0.09900
S1831       S  0.95876474  0.27412902  0.48988837    -0.33500
S1832       S  0.55388022  0.22148653  0.51147466    -0.33500
H1833       H  0.53084053  0.18998687  0.50413294     0.27900
H1834       H  0.98177448  0.30622764  0.48732943     0.27900
H1835       H  0.95119280  0.21924687  0.52417122     0.18500
H1836       H  0.56184446  0.27774228  0.48177637     0.18500
C1837       C  0.91693700  0.06334441  0.50369754    -0.07300
C1838       C  0.91625428  0.07485348  0.46882629    -0.18500
C1839       C  0.90609578  0.05510940  0.43801439     0.09900
C1840       C  0.89522393  0.02255911  0.44177239    -0.07300
C1841       C  0.89772390  0.01137250  0.47600522    -0.18500
C1842       C  0.90877182  0.03115351  0.50663463     0.09900
S1843       S  0.90764470  0.07299379  0.39466617    -0.33500
S1844       S  0.91031972  0.01271579  0.54841631    -0.33500
H1845       H  0.94231145  0.03456409  0.55480027     0.27900
H1846       H  0.91332207  0.05204050  0.37413681     0.27900
H1847       H  0.92346947  0.09949149  0.46540340     0.18500
H1848       H  0.88957575  0.98651185  0.47946104     0.18500
C1849       C  0.58491936  0.35085056  0.84727197    -0.07300
C1850       C  0.60804258  0.34333665  0.83725046    -0.18500
C1851       C  0.60208512  0.31225764  0.83846547     0.09900
C1852       C  0.57231986  0.28784562  0.85009947    -0.07300
C1853       C  0.54792825  0.29492373  0.85444480    -0.18500
C1854       C  0.55395022  0.32603373  0.85307338     0.09900
S1855       S  0.63376534  0.30556292  0.82663625    -0.33500
S1856       S  0.52212499  0.33301342  0.86365499    -0.33500
H1857       H  0.53615981  0.36318525  0.84806055     0.27900
H1858       H  0.61330995  0.27595989  0.81098743     0.27900
H1859       H  0.63191370  0.36221896  0.83227045     0.18500
H1860       H  0.52452067  0.27659080  0.86225058     0.18500
C1861       C  0.64938402  0.02877311  0.94330609    -0.07300
C1862       C  0.68006918  0.05538751  0.94395217    -0.18500
C1863       C  0.69098678  0.07705830  0.97302573     0.09900
C1864       C  0.67132697  0.07217367  0.00344250    -0.07300
C1865       C  0.64014838  0.04651989  0.00202755    -0.18500
C1866       C  0.62888722  0.02507869  0.97254603     0.09900
S1867       S  0.73007112  0.11062775  0.96903486    -0.33500
S1868       S  0.58856458  0.49290288  0.97373017    -0.33500
H1869       H  0.57878469  0.50319562  0.00430619     0.27900
H1870       H  0.72105434  0.13221746  0.98111910     0.27900
H1871       H  0.69623207  0.05923669  0.92179831     0.18500
H1872       H  0.62459988  0.04257804  0.02484269     0.18500
C1873       C  0.77909098  0.01397892  0.01864486    -0.07300
C1874       C  0.76805532  0.48339370  0.00583526    -0.18500
C1875       C  0.74025461  0.46782343  0.98593812     0.09900
C1876       C  0.72334712  0.48364283  0.97880527    -0.07300
C1877       C  0.73458696  0.01442773  0.99187207    -0.18500
C1878       C  0.76225040  0.02967398  0.01222365     0.09900
S1879       S  0.72779346  0.42842761  0.96929415    -0.33500
S1880       S  0.77477141  0.06810771  0.03171059    -0.33500
H1881       H  0.74767487  0.06946350  0.02232083     0.27900
H1882       H  0.75434349  0.42685156  0.98069183     0.27900
H1883       H  0.78096694  0.47149076  0.01249268     0.18500
H1884       H  0.72160449  0.02641847  0.98613302     0.18500
C1885       C  0.56878142  0.40396278  0.98773713    -0.07300
C1886       C  0.58105152  0.41086432  0.02347890    -0.18500
C1887       C  0.56129114  0.40212919  0.05424144     0.09900
C1888       C  0.52820356  0.38572569  0.04973332    -0.07300
C1889       C  0.51591412  0.38000960  0.01416175    -0.18500
C1890       C  0.53552257  0.38856195  0.98328946     0.09900
S1891       S  0.57972275  0.41278598  0.09854239    -0.33500
S1892       S  0.51709735  0.37725395  0.93883856    -0.33500
H1893       H  0.48555461  0.36088469  0.95054182     0.27900
H1894       H  0.55503532  0.41463216  0.11573031     0.27900
H1895       H  0.60634653  0.42319907  0.02759441     0.18500
H1896       H  0.49057447  0.36687394  0.01057472     0.18500
C1897       C  0.67437165  0.08831177  0.50130900    -0.07300
C1898       C  0.69470502  0.09963229  0.47106235    -0.18500
C1899       C  0.68782653  0.11237755  0.44056391     0.09900
C1900       C  0.66002937  0.11441680  0.43980538    -0.07300
C1901       C  0.63859565  0.10112737  0.46858770    -0.18500
C1902       C  0.64514741  0.08792863  0.49890673     0.09900
S1903       S  0.71602257  0.12652923  0.40376805    -0.33500
S1904       S  0.61518334  0.07190756  0.53363562    -0.33500
H1905       H  0.61582292  0.04369929  0.53631913     0.27900
H1906       H  0.69412606  0.12210021  0.37630262     0.27900
H1907       H  0.71673575  0.09952794  0.47151156     0.18500
H1908       H  0.61727785  0.10261600  0.46848943     0.18500
C1909       C  0.85728152  0.06791801  0.63576791    -0.07300
C1910       C  0.84704168  0.08352058  0.65950649    -0.18500
C1911       C  0.81575021  0.07742254  0.65854675     0.09900
C1912       C  0.79433131  0.05580693  0.63279813    -0.07300
C1913       C  0.80365247  0.03762725  0.61229742    -0.18500
C1914       C  0.83459439  0.04330131  0.61370237     0.09900
S1915       S  0.80471757  0.09791722  0.69059492    -0.33500
S1916       S  0.84501453  0.02134409  0.58281855    -0.33500
H1917       H  0.87153046  0.02625017  0.60291333     0.27900
H1918       H  0.77224066  0.07581890  0.69012033     0.27900
H1919       H  0.86411766  0.10241879  0.67667902     0.18500
H1920       H  0.78731521  0.02030294  0.59302048     0.18500
C1921       C  0.65908953  0.00899621  0.71087901    -0.07300
C1922       C  0.68186985  0.02653517  0.73727501    -0.18500
C1923       C  0.67745127  0.01732004  0.77375265     0.09900
C1924       C  0.64991975  0.48934600  0.78433986    -0.07300
C1925       C  0.62648673  0.47239081  0.75819416    -0.18500
C1926       C  0.63080057  0.48188391  0.72154746     0.09900
S1927       S  0.70790879  0.04244301  0.80546443    -0.33500
S1928       S  0.60091637  0.45639135  0.68945454    -0.33500
H1929       H  0.60427907  0.48013978  0.66561351     0.27900
H1930       H  0.68657136  0.03979965  0.83272630     0.27900
H1931       H  0.70363531  0.04734308  0.72922741     0.18500
H1932       H  0.60541194  0.45081135  0.76599261     0.18500
C1933       C  0.61757000  0.46444310  0.54996209    -0.07300
C1934       C  0.61457022  0.47577113  0.51589202    -0.18500
C1935       C  0.60506036  0.45661516  0.48465541     0.09900
C1936       C  0.59746024  0.42480853  0.48708437    -0.07300
C1937       C  0.59925884  0.41301302  0.52125429    -0.18500
C1938       C  0.60871768  0.43219238  0.55259969     0.09900
S1939       S  0.60586444  0.47509860  0.44196297    -0.33500
S1940       S  0.60830446  0.41380715  0.59515038    -0.33500
H1941       H  0.59850832  0.43164250  0.61559319     0.27900
H1942       H  0.61816049  0.45933231  0.42163656     0.27900
H1943       H  0.62194076  0.50046078  0.51278882     0.18500
H1944       H  0.59268656  0.38845773  0.52369159     0.18500
C1945       C  0.77476251  0.48300197  0.48006160    -0.07300
C1946       C  0.77423625  0.51002528  0.46886719    -0.18500
C1947       C  0.75580340  0.51993474  0.48694043     0.09900
C1948       C  0.73855361  0.00330336  0.51794758    -0.07300
C1949       C  0.73947763  0.97657066  0.52953755    -0.18500
C1950       C  0.75771721  0.96649386  0.51117856     0.09900
S1951       S  0.75420615  0.55305850  0.46819442    -0.33500
S1952       S  0.75957665  0.93349558  0.52974834    -0.33500
H1953       H  0.79056864  0.44389039  0.51803999     0.27900
H1954       H  0.72289392  0.54240562  0.47889831     0.27900
H1955       H  0.78662779  0.52238171  0.44440243     0.18500
H1956       H  0.72733237  0.96446918  0.55423151     0.18500
C1957       C  0.90353288  0.32752339  0.00616553    -0.07300
C1958       C  0.91370285  0.32483647  0.97109540    -0.18500
C1959       C  0.90656383  0.33687498  0.94008963     0.09900
C1960       C  0.88917974  0.35255868  0.94387611    -0.07300
C1961       C  0.87950230  0.35574921  0.97895845    -0.18500
C1962       C  0.88552347  0.34266991  0.00964723     0.09900
S1963       S  0.92050620  0.33169259  0.89653891    -0.33500
S1964       S  0.86680794  0.34347206  0.05168589    -0.33500
H1965       H  0.85837648  0.31255776  0.06172108     0.27900
H1966       H  0.92235770  0.35843996  0.88017480     0.27900
H1967       H  0.92764593  0.31359606  0.96773571     0.18500
H1968       H  0.86476939  0.36626160  0.98216478     0.18500
C1969       C  0.79037901  0.27872640  0.98686088    -0.07300
C1970       C  0.79448086  0.25279238  0.98099887    -0.18500
C1971       C  0.77936769  0.22643560  0.00322523     0.09900
C1972       C  0.75857835  0.22566581  0.03046283    -0.07300
C1973       C  0.75773342  0.25324835  0.03859036    -0.18500
C1974       C  0.77460107  0.28015462  0.01810853     0.09900
S1975       S  0.78777031  0.19517552  0.99527023    -0.33500
S1976       S  0.77426909  0.31519866  0.03238185    -0.33500
H1977       H  0.80397071  0.33595597  0.01729427     0.27900
H1978       H  0.79288928  0.19220124  0.03243659     0.27900
H1979       H  0.80782550  0.25218075  0.95773207     0.18500
H1980       H  0.74348012  0.25396133  0.06075028     0.18500
C1981       C  0.71588194  0.25911035  0.86751805    -0.07300
C1982       C  0.69865546  0.26152782  0.83841966    -0.18500
C1983       C  0.66686346  0.23858978  0.83287527     0.09900
C1984       C  0.65155058  0.21349056  0.85767092    -0.07300
C1985       C  0.67003133  0.20865356  0.88313705    -0.18500
C1986       C  0.70188622  0.23119616  0.88841748     0.09900
S1987       S  0.64615168  0.24338507  0.79527637    -0.33500
S1988       S  0.72213756  0.22516678  0.92559973    -0.33500
H1989       H  0.72787430  0.25288259  0.94360821     0.27900
H1990       H  0.61982210  0.21278732  0.79679181     0.27900
H1991       H  0.70964204  0.28183387  0.82073741     0.18500
H1992       H  0.65861074  0.18953357  0.90251268     0.18500
C1993       C  0.76630888  0.40378024  0.85666941    -0.07300
C1994       C  0.77596752  0.43450199  0.86824999    -0.18500
C1995       C  0.75415961  0.44490957  0.87255925     0.09900
C1996       C  0.72172356  0.42397678  0.86469443    -0.07300
C1997       C  0.71285483  0.39433452  0.84962258    -0.18500
C1998       C  0.73482492  0.38429873  0.84513877     0.09900
S1999       S  0.76785549  0.48347860  0.89248621    -0.33500
S2000       S  0.72083525  0.34516447  0.82755334    -0.33500
H2001       H  0.75068954  0.34972748  0.81831184     0.27900
H2002       H  0.79900176  0.49096873  0.89981050     0.27900
H2003       H  0.79998207  0.44912304  0.87772708     0.18500
H2004       H  0.68839481  0.37831410  0.84277266     0.18500
C2005       C  0.83606613  0.41833350  0.99192918    -0.07300
C2006       C  0.81758269  0.40846992  0.02375431    -0.18500
C2007       C  0.82560277  0.42779607  0.05481603     0.09900
C2008       C  0.85238613  0.45842344  0.05444037    -0.07300
C2009       C  0.87218458  0.46756130  0.02386235    -0.18500
C2010       C  0.86469626  0.44782569  0.99306447     0.09900
S2011       S  0.79995440  0.41245465  0.09387778    -0.33500
S2012       S  0.89272212  0.46207543  0.95627880    -0.33500
H2013       H  0.89309338  0.43369915  0.95330238     0.27900
H2014       H  0.82289320  0.43158554  0.11975631     0.27900
H2015       H  0.79606741  0.38581522  0.02426476     0.18500
H2016       H  0.89275330  0.49098648  0.02307213     0.18500
C2017       C  0.84185581  0.40013632  0.48794552    -0.07300
C2018       C  0.82753681  0.39769160  0.52207565    -0.18500
C2019       C  0.83815167  0.39032311  0.55417471     0.09900
C2020       C  0.86334143  0.38397922  0.55281928    -0.07300
C2021       C  0.87827620  0.38731635  0.51897998    -0.18500
C2022       C  0.86833495  0.39563726  0.48708594     0.09900
S2023       S  0.81847127  0.38972574  0.59593720    -0.33500
S2024       S  0.89051340  0.39943153  0.44636952    -0.33500
H2025       H  0.89810376  0.43080966  0.44057095     0.27900
H2026       H  0.84604938  0.40280091  0.61729999     0.27900
H2027       H  0.80781084  0.40172160  0.52403198     0.18500
H2028       H  0.89746134  0.38243904  0.51690955     0.18500
C2029       C  0.78864375  0.28264508  0.51127071    -0.07300
C2030       C  0.76232890  0.28589880  0.51812667    -0.18500
C2031       C  0.73583445  0.27105779  0.49559079     0.09900
C2032       C  0.73554478  0.25142378  0.46700618    -0.07300
C2033       C  0.76323044  0.25099122  0.45854881    -0.18500
C2034       C  0.79010851  0.26767245  0.47926587     0.09900
S2035       S  0.70339861  0.27785514  0.50383023    -0.33500
S2036       S  0.82553001  0.26893013  0.46365631    -0.33500
H2037       H  0.84536710  0.29939650  0.47772933     0.27900
H2038       H  0.71850880  0.30176426  0.53021778     0.27900
H2039       H  0.76176338  0.29835931  0.54230619     0.18500
H2040       H  0.76417943  0.23752054  0.43559089     0.18500
C2041       C  0.77625957  0.20919786  0.62781892    -0.07300
C2042       C  0.78070850  0.19054179  0.65332206    -0.18500
C2043       C  0.75745047  0.15888123  0.65869205     0.09900
C2044       C  0.73007653  0.14493993  0.63683204    -0.07300
C2045       C  0.72407029  0.16452055  0.61462441    -0.18500
C2046       C  0.74672616  0.19639042  0.61001612     0.09900
S2047       S  0.76444486  0.13659737  0.69232124    -0.33500
S2048       S  0.73847296  0.21820648  0.57690206    -0.33500
H2049       H  0.76383339  0.22295889  0.55468153     0.27900
H2050       H  0.73327703  0.11120361  0.69353985     0.27900
H2051       H  0.80273680  0.20034419  0.66823440     0.18500
H2052       H  0.70334157  0.15410988  0.59728019     0.18500
C2053       C  0.86613173  0.33838766  0.71381782    -0.07300
C2054       C  0.87024066  0.36781653  0.72405860    -0.18500
C2055       C  0.86151338  0.37258480  0.75894680     0.09900
C2056       C  0.84886344  0.34748576  0.78419610    -0.07300
C2057       C  0.84700779  0.31884734  0.77437320    -0.18500
C2058       C  0.85566921  0.31416293  0.73973941     0.09900
S2059       S  0.86455021  0.41007593  0.76830773    -0.33500
S2060       S  0.85206052  0.27641446  0.72972608    -0.33500
H2061       H  0.87530455  0.28736578  0.70240448     0.27900
H2062       H  0.83501779  0.39708644  0.78556520     0.27900
H2063       H  0.87791944  0.38634741  0.70392490     0.18500
H2064       H  0.83851138  0.29972350  0.79380920     0.18500
C2065       C  0.93573715  0.21418982  0.63035203    -0.07300
C2066       C  0.95744328  0.24509839  0.61921350    -0.18500
C2067       C  0.94994505  0.26916386  0.62036712     0.09900
C2068       C  0.92030386  0.26270432  0.63367149    -0.07300
C2069       C  0.89981774  0.23264901  0.64803274    -0.18500
C2070       C  0.90713465  0.20833213  0.64638523     0.09900
S2071       S  0.97720379  0.30625923  0.59949620    -0.33500
S2072       S  0.87940077  0.16974968  0.66354149    -0.33500
H2073       H  0.85625727  0.17683893  0.67495546     0.27900
H2074       H  0.96788264  0.32444742  0.62000718     0.27900
H2075       H  0.97946931  0.25001443  0.60667312     0.18500
H2076       H  0.87677471  0.22746618  0.65749865     0.18500
C2077       C  0.92955988  0.33549298  0.50111240    -0.07300
C2078       C  0.91779751  0.31994572  0.46758010    -0.18500
C2079       C  0.93620787  0.32933719  0.43598357     0.09900
C2080       C  0.96772628  0.35422513  0.43760764    -0.07300
C2081       C  0.97857786  0.37199563  0.46978671    -0.18500
C2082       C  0.95986001  0.36322393  0.50148820     0.09900
S2083       S  0.91918343  0.30692965  0.39476942    -0.33500
S2084       S  0.97601657  0.38721218  0.54203919    -0.33500
H2085       H  0.00374738  0.41134432  0.52614589     0.27900
H2086       H  0.94075671  0.33010018  0.37083792     0.27900
H2087       H  0.89457565  0.29929375  0.46610045     0.18500
H2088       H  0.00286292  0.39093949  0.47108141     0.18500
O2089       O  0.82816603  0.74235531  0.60519705    -0.83000
C2090       C  0.87081705  0.86832240  0.58331738     0.96300
O2091       O  0.85089276  0.85387634  0.60818607    -0.72100
O2092       O  0.81501562  0.80835151  0.56498201    -0.75700
Al2093     Al  0.82920441  0.80888668  0.61236108     1.49000
C2094       C  0.81032941  0.78813346  0.54106984     0.91600
O2095       O  0.88173360  0.79946037  0.53194522    -0.81900
O2096       O  0.90974309  0.80592634  0.63438517    -0.75500
Al2097     Al  0.85571346  0.77285957  0.57039222     1.90100
O2098       O  0.92124085  0.83196289  0.56572310    -0.74600
O2099       O  0.89013163  0.84646280  0.65527869    -0.74400
O2100       O  0.89488486  0.86521173  0.58157264    -0.80100
O2101       O  0.84034777  0.81005540  0.66143717    -0.78300
O2102       O  0.86183490  0.80515046  0.59762008    -1.14400
O2103       O  0.80006683  0.76448156  0.61843140    -0.73600
C2104       C  0.80316086  0.74043247  0.61747806     0.97100
C2105       C  0.90981619  0.82180317  0.53455527     0.93500
Al2106     Al  0.90098547  0.83525148  0.60883360     1.55600
O2107       O  0.82168947  0.77024003  0.54395269    -0.78200
C2108       C  0.86590326  0.83118040  0.67494678     0.97700
C2109       C  0.90573565  0.78057333  0.61971307     0.92500
O2110       O  0.88881725  0.76913678  0.59162329    -0.83600
O2111       O  0.74757090  0.81171557  0.88885792    -0.83000
C2112       C  0.87424586  0.85924274  0.91252834     0.96300
O2113       O  0.86040568  0.83853624  0.88817641    -0.72100
O2114       O  0.81549506  0.80362777  0.93264280    -0.75700
Al2115     Al  0.81530050  0.81544357  0.88445193     1.49000
C2116       C  0.79511362  0.79916740  0.95614069     0.91600
O2117       O  0.80242754  0.86939260  0.96127563    -0.81900
O2118       O  0.81015473  0.89437431  0.85822702    -0.75500
Al2119     Al  0.77719933  0.84130648  0.92314261     1.90100
O2120       O  0.83571826  0.90822858  0.92752504    -0.74600
O2121       O  0.85133286  0.87482935  0.83970092    -0.74400
O2122       O  0.86989589  0.88250515  0.91375187    -0.80100
O2123       O  0.81603960  0.82458070  0.83485548    -0.78300
O2124       O  0.81018986  0.84781452  0.89718956    -1.14400
O2125       O  0.77118073  0.78458063  0.87878338    -0.73600
C2126       C  0.74662110  0.78676455  0.87810890     0.97100
C2127       C  0.82438437  0.89760104  0.95858120     0.93500
Al2128     Al  0.83964589  0.88696212  0.88522531     1.55600
O2129       O  0.77624628  0.80925994  0.95191443    -0.78200
C2130       C  0.83779858  0.84954838  0.82105761     0.97700
C2131       C  0.78396759  0.88927527  0.87130916     0.92500
O2132       O  0.77205193  0.87231911  0.89913072    -0.83600
O2133       O  0.76133349  0.57635008  0.61337515    -0.83000
C2134       C  0.63598509  0.98816003  0.57892180     0.96300
O2135       O  0.65172872  0.98257431  0.60172141    -0.72100
O2136       O  0.70177792  0.49897446  0.56213949    -0.75700
Al2137     Al  0.69603886  0.50838304  0.61040239     1.49000
C2138       C  0.72538863  0.51677714  0.54303910     0.91600
O2139       O  0.70887850  0.57527693  0.53425508    -0.81900
O2140       O  0.69180686  0.58921011  0.63544976    -0.75500
Al2141     Al  0.73286405  0.57428954  0.57545908     1.90100
O2142       O  0.67070629  0.57531220  0.56465999    -0.74600
O2143       O  0.65447519  0.52786330  0.65270515    -0.74400
O2144       O  0.63913563  0.51531486  0.57804817    -0.80100
O2145       O  0.69013192  0.51375512  0.65996655    -0.78300
O2146       O  0.69881995  0.54496273  0.59817848    -1.14400
O2147       O  0.73981308  0.52534194  0.62086056    -0.73600
C2148       C  0.76339510  0.55272316  0.62334792     0.97100
C2149       C  0.68503061  0.57882587  0.53496794     0.93500
Al2150     Al  0.66650545  0.55115217  0.60734419     1.55600
O2151       O  0.74042249  0.54609118  0.54822967    -0.78200
C2152       C  0.66814655  0.51721105  0.67246194     0.97700
C2153       C  0.71732674  0.61227107  0.62371849     0.92500
O2154       O  0.73258552  0.60871134  0.59828752    -0.83600
O2155       O  0.67044140  0.90946635  0.88750017    -0.83000
C2156       C  0.64200274  0.50386645  0.91474726     0.96300
O2157       O  0.66337842  0.50801430  0.89239994    -0.72100
O2158       O  0.69358408  0.98908333  0.93288898    -0.75700
Al2159     Al  0.67939030  0.98002056  0.88481632     1.49000
C2160       C  0.69684028  0.97065764  0.95360712     0.91600
O2161       O  0.61852142  0.91714266  0.96047787    -0.81900
O2162       O  0.59628369  0.90475313  0.85455214    -0.75500
Al2163     Al  0.64409056  0.91492536  0.92212630     1.90100
O2164       O  0.58276849  0.91647805  0.92473603    -0.74600
O2165       O  0.62189260  0.96690055  0.83979687    -0.74400
O2166       O  0.61625885  0.97777209  0.91431845    -0.80100
O2167       O  0.66995154  0.97547209  0.83480763    -0.78300
O2168       O  0.64369956  0.94538967  0.89668104    -1.14400
O2169       O  0.70283481  0.95935330  0.87578453    -0.73600
C2170       C  0.69678467  0.93117125  0.87585681     0.97100
C2171       C  0.59114460  0.91299652  0.95611167     0.93500
Al2172     Al  0.60705435  0.94182893  0.88402071     1.55600
O2173       O  0.67945070  0.94136473  0.95070897    -0.78200
C2174       C  0.64684593  0.97626760  0.82137042     0.97700
C2175       C  0.59677967  0.88086731  0.86719445     0.92500
O2176       O  0.60890602  0.88189038  0.89788608    -0.83600
O2177       O  0.92097903  0.66272503  0.60719427    -0.83000
C2178       C  0.51499457  0.63317926  0.58020695     0.96300
O2179       O  0.51934216  0.65478334  0.60250366    -0.72100
O2180       O  0.00154172  0.68710908  0.56342830    -0.75700
Al2181     Al  0.99135775  0.67094541  0.61088614     1.49000
C2182       C  0.98332707  0.69104159  0.54296480     0.91600
O2183       O  0.92975396  0.61258600  0.53234659    -0.81900
O2184       O  0.91356211  0.58597935  0.63628605    -0.75500
Al2185     Al  0.92688044  0.63727213  0.57155151     1.90100
O2186       O  0.92794299  0.57580760  0.56690307    -0.74600
O2187       O  0.97572498  0.61124350  0.65379734    -0.74400
O2188       O  0.98863667  0.60782070  0.58000814    -0.80100
O2189       O  0.98555298  0.65968486  0.66032902    -0.78300
O2190       O  0.95656696  0.63569658  0.59739761    -1.14400
O2191       O  0.97081161  0.69466423  0.62065035    -0.73600
C2192       C  0.94258169  0.68870951  0.61999311     0.97100
C2193       C  0.92555996  0.58508606  0.53579161     0.93500
Al2194     Al  0.95206968  0.59831344  0.60868901     1.55600
O2195       O  0.95399826  0.67337829  0.54503502    -0.78200
C2196       C  0.98406146  0.63536166  0.67340399     0.97700
C2197       C  0.88996484  0.58607715  0.62183091     0.92500
O2198       O  0.89300695  0.60169021  0.59340571    -0.83600
O2199       O  0.58932944  0.75335712  0.87521017    -0.83000
C2200       C  0.99457372  0.63208944  0.91801853     0.96300
O2201       O  0.99032204  0.64919135  0.89594834    -0.72100
O2202       O  0.51219098  0.70227733  0.93029940    -0.75700
Al2203     Al  0.51880289  0.69205497  0.88306435     1.49000
C2204       C  0.53157673  0.72682586  0.94706056     0.91600
O2205       O  0.58536754  0.70425931  0.95860030    -0.81900
O2206       O  0.59492855  0.67926774  0.85927958    -0.75500
Al2207     Al  0.58572345  0.72666038  0.91550789     1.90100
O2208       O  0.58129168  0.66260399  0.93152166    -0.74600
O2209       O  0.53251802  0.64460607  0.84333484    -0.74400
O2210       O  0.52094774  0.63338933  0.91874046    -0.80100
O2211       O  0.52130953  0.68204147  0.83455658    -0.78300
O2212       O  0.55410704  0.69234165  0.89525720    -1.14400
O2213       O  0.53875304  0.73500753  0.86816173    -0.73600
C2214       C  0.56685597  0.75685601  0.86387509     0.97100
C2215       C  0.58742489  0.67958678  0.95975949     0.93500
Al2216     Al  0.55698885  0.65771801  0.88843876     1.55600
O2217       O  0.56064363  0.73953837  0.94107834    -0.78200
C2218       C  0.52175330  0.65806836  0.82332967     0.97700
C2219       C  0.61943372  0.70414868  0.86996596     0.92500
O2220       O  0.61783254  0.72167720  0.89402557    -0.83600
O2221       O  0.62691436  0.72972513  0.38284328    -0.83000
C2222       C  0.65680875  0.63647017  0.41483052     0.96300
O2223       O  0.63036472  0.62990217  0.40076811    -0.72100
O2224       O  0.60242855  0.65419650  0.43676195    -0.75700
Al2225     Al  0.61395923  0.65783995  0.38740294     1.49000
C2226       C  0.60343568  0.67429196  0.45879224     0.91600
O2227       O  0.68129273  0.72741289  0.45172209    -0.81900
O2228       O  0.69569382  0.72807897  0.34477369    -0.75500
Al2229     Al  0.65354571  0.72643989  0.41581846     1.90100
O2230       O  0.71305285  0.72364053  0.41317386    -0.74600
O2231       O  0.66832621  0.66554188  0.33863452    -0.74400
O2232       O  0.68090703  0.66301294  0.41001570    -0.80100
O2233       O  0.61986228  0.65581130  0.33627916    -0.78300
O2234       O  0.65093593  0.69292160  0.39357991    -1.14400
O2235       O  0.59103837  0.67988035  0.37490199    -0.73600
C2236       C  0.60033063  0.70908702  0.37155417     0.97100
C2237       C  0.70838706  0.73299843  0.44325290     0.93500
Al2238     Al  0.68623486  0.69461569  0.37789982     1.55600
O2239       O  0.61982835  0.70334294  0.45121546    -0.78200
C2240       C  0.64289338  0.65558863  0.32150607     0.97700
C2241       C  0.70174599  0.75477404  0.35678014     0.92500
O2242       O  0.68810928  0.75689078  0.38535047    -0.83600
O2243       O  0.73590620  0.61763760  0.11431744    -0.83000
C2244       C  0.64203454  0.64573817  0.07878538     0.96300
O2245       O  0.63565523  0.61911809  0.09188256    -0.72100
O2246       O  0.66126264  0.59104829  0.05850683    -0.75700
Al2247     Al  0.66372986  0.60341381  0.10758697     1.49000
C2248       C  0.68189030  0.59229016  0.03729849     0.91600
O2249       O  0.73368908  0.67097605  0.04413974    -0.81900
O2250       O  0.73423724  0.68693255  0.15060670    -0.75500
Al2251     Al  0.73265050  0.64351199  0.08057829     1.90100
O2252       O  0.72863033  0.70243829  0.08218258    -0.74600
O2253       O  0.67157061  0.65836286  0.15682022    -0.74400
O2254       O  0.66816064  0.66993924  0.08545302    -0.80100
O2255       O  0.66001863  0.60939408  0.15810797    -0.78300
O2256       O  0.69876736  0.64070604  0.10207343    -1.14400
O2257       O  0.68625061  0.58153259  0.12290834    -0.73600
C2258       C  0.71559282  0.59169569  0.12724488     0.97100
C2259       C  0.73900739  0.69803531  0.05276092     0.93500
Al2260     Al  0.70011943  0.67603452  0.11748946     1.55600
O2261       O  0.71064727  0.60942115  0.04561250    -0.78200
C2262       C  0.66061495  0.63262622  0.17330455     0.97700
C2263       C  0.76078324  0.69250830  0.13863979     0.92500
O2264       O  0.76256901  0.67823704  0.11057940    -0.83600
O2265       O  0.77958720  0.87899876  0.39286242    -0.83000
C2266       C  0.87556376  0.49883128  0.41363368     0.96300
O2267       O  0.87242996  0.97168576  0.41360852    -0.72100
O2268       O  0.84110987  0.91062765  0.42371143    -0.75700
Al2269     Al  0.84455737  0.93719014  0.38304776     1.49000
C2270       C  0.82888168  0.90791018  0.45480879     0.91600
O2271       O  0.77253557  0.94014964  0.44884257    -0.81900
O2272       O  0.76999938  0.96171954  0.37685198    -0.75500
Al2273     Al  0.77969092  0.91273964  0.41898121     1.90100
O2274       O  0.81027855  0.98755241  0.43436666    -0.74600
O2275       O  0.81839602  0.97426542  0.33532562    -0.74400
O2276       O  0.85892778  0.50474307  0.39247172    -0.80100
O2277       O  0.85620237  0.96306618  0.33930758    -0.78300
O2278       O  0.81250607  0.94275436  0.39552216    -1.14400
O2279       O  0.81814004  0.90132881  0.35271321    -0.73600
C2280       C  0.79261046  0.87783574  0.36354997     0.97100
C2281       C  0.78740896  0.96948643  0.45421573     0.93500
Al2282     Al  0.81430544  0.97902404  0.38537002     1.55600
O2283       O  0.80538249  0.91177887  0.45780124    -0.78200
C2284       C  0.84122559  0.97324091  0.32109837     0.97700
C2285       C  0.74691880  0.93402967  0.37446463     0.92500
O2286       O  0.75011342  0.91093758  0.38369571    -0.83600
O2287       O  0.87716797  0.60390335  0.11707173    -0.83000
C2288       C  0.85459826  0.98324673  0.07962190     0.96300
O2289       O  0.88054080  0.50435788  0.09342799    -0.72100
O2290       O  0.90598061  0.55668862  0.05815137    -0.75700
Al2291     Al  0.89422120  0.54799348  0.10737356     1.49000
C2292       C  0.90718009  0.57848507  0.03932689     0.91600
O2293       O  0.82942236  0.55030702  0.04083933    -0.81900
O2294       O  0.80680211  0.53121536  0.14487605    -0.75500
Al2295     Al  0.85377204  0.57576923  0.07984544     1.90100
O2296       O  0.79705000  0.51012153  0.07503230    -0.74600
O2297       O  0.83824677  0.50150266  0.15640170    -0.74400
O2298       O  0.82977402  0.98404238  0.08467483    -0.80100
O2299       O  0.88768010  0.53929475  0.15815937    -0.78300
O2300       O  0.85649871  0.54449513  0.10070266    -1.14400
O2301       O  0.91559591  0.59317052  0.12032507    -0.73600
C2302       C  0.90501706  0.61187897  0.12557641     0.97100
C2303       C  0.80351112  0.52541848  0.04579297     0.93500
Al2304     Al  0.82126617  0.50964416  0.11423942     1.55600
O2305       O  0.89045112  0.59048391  0.04801999    -0.78200
C2306       C  0.86377018  0.51731722  0.17340147     0.97700
C2307       C  0.80064979  0.55136141  0.13220167     0.92500
O2308       O  0.81631636  0.56851701  0.10566582    -0.83600
O2309       O  0.88844691  0.76756946  0.10121888    -0.83000
C2310       C  0.50580540  0.86842072  0.07990187     0.96300
O2311       O  0.97808856  0.86391537  0.07926552    -0.72100
O2312       O  0.91762785  0.83025713  0.06875636    -0.75700
Al2313     Al  0.94388282  0.83537138  0.10975167     1.49000
C2314       C  0.91377282  0.81647029  0.03853449     0.91600
O2315       O  0.95297493  0.76685390  0.04482419    -0.81900
O2316       O  0.97523219  0.76527588  0.11783644    -0.75500
Al2317     Al  0.92344202  0.77050068  0.07497074     1.90100
O2318       O  0.99908250  0.80637254  0.06108191    -0.74600
O2319       O  0.98370774  0.81303947  0.15993628    -0.74400
O2320       O  0.51286454  0.85417406  0.10327602    -0.80100
O2321       O  0.96879426  0.84824565  0.15422415    -0.78300
O2322       O  0.95186583  0.80457551  0.09859475    -1.14400
O2323       O  0.90775467  0.80821373  0.13907419    -0.73600
C2324       C  0.88550691  0.78149688  0.12880975     0.97100
C2325       C  0.98220616  0.78423016  0.03958550     0.93500
Al2326     Al  0.98947563  0.80928184  0.10980463     1.55600
O2327       O  0.91938268  0.79412395  0.03582870    -0.78200
C2328       C  0.97982939  0.83454066  0.17332875     0.97700
C2329       C  0.94834394  0.74086319  0.11964995     0.92500
O2330       O  0.92414932  0.74199870  0.11017958    -0.83600
O2331       O  0.60858388  0.86528086  0.38447301    -0.83000
C2332       C  0.99146653  0.85345726  0.41357956     0.96300
O2333       O  0.51386513  0.87807353  0.39918914    -0.72100
O2334       O  0.56687009  0.90396871  0.43344093    -0.75700
Al2335     Al  0.55632262  0.88785413  0.38548241     1.49000
C2336       C  0.58625501  0.90323228  0.45503195     0.91600
O2337       O  0.55238835  0.82595937  0.46065440    -0.81900
O2338       O  0.53436204  0.79676705  0.35758522    -0.75500
Al2339     Al  0.57922597  0.84586246  0.42125983     1.90100
O2340       O  0.51235545  0.79209206  0.42721892    -0.74600
O2341       O  0.50691487  0.82964819  0.34042725    -0.74400
O2342       O  0.99000656  0.82731484  0.41080183    -0.80100
O2343       O  0.54608726  0.87790536  0.33517792    -0.78300
O2344       O  0.54991761  0.84966101  0.39686654    -1.14400
O2345       O  0.60070588  0.90463402  0.37164488    -0.73600
C2346       C  0.61770426  0.89175625  0.37027602     0.97100
C2347       C  0.52722505  0.80016376  0.45699319     0.93500
Al2348     Al  0.51395172  0.81469752  0.38483148     1.55600
O2349       O  0.59592423  0.88413203  0.44959114    -0.78200
C2350       C  0.52267116  0.85398463  0.32163636     0.97700
C2351       C  0.55336138  0.79007496  0.37265454     0.92500
O2352       O  0.56977821  0.80601813  0.39964585    -0.83600
C2353       C  0.99027964  0.84468421  0.21104373    -0.07300
C2354       C  0.02276487  0.86059770  0.21824519    -0.18500
C2355       C  0.53424085  0.86520618  0.25405350     0.09900
C2356       C  0.51275462  0.85362673  0.28346239    -0.07300
C2357       C  0.48025844  0.83890012  0.27610019    -0.18500
C2358       C  0.46887583  0.83465410  0.24033601     0.09900
S2359       S  0.07621653  0.88324149  0.26010094    -0.33500
S2360       S  0.42684110  0.81426335  0.23360846    -0.33500
H2361       H  0.42796748  0.83401262  0.20533296     0.27900
H2362       H  0.57370727  0.86157938  0.28665007     0.27900
H2363       H  0.03926278  0.86802326  0.19570532     0.18500
H2364       H  0.46352763  0.83009267  0.29842505     0.18500
C2365       C  0.94519485  0.71003578  0.13007749    -0.07300
C2366       C  0.92306001  0.69146196  0.15648860    -0.18500
C2367       C  0.91329448  0.65947173  0.16029948     0.09900
C2368       C  0.92536272  0.64520761  0.13678558    -0.07300
C2369       C  0.95080430  0.66465236  0.11412536    -0.18500
C2370       C  0.96103595  0.69700584  0.11077567     0.09900
S2371       S  0.88348276  0.63710113  0.19369203    -0.33500
S2372       S  0.99201038  0.72042751  0.07898099    -0.33500
H2373       H  0.00015856  0.69749140  0.07017636     0.27900
H2374       H  0.89381557  0.61535391  0.19886586     0.27900
H2375       H  0.91274339  0.70164447  0.17366878     0.18500
H2376       H  0.96021748  0.65389498  0.09602111     0.18500
C2377       C  0.65034112  0.90796792  0.35594120    -0.07300
C2378       C  0.67148553  0.93863681  0.36817841    -0.18500
C2379       C  0.70405347  0.94938498  0.37109841     0.09900
C2380       C  0.71532571  0.92841074  0.36290045    -0.07300
C2381       C  0.69446325  0.89937832  0.34686019    -0.18500
C2382       C  0.66278361  0.88969871  0.34168901     0.09900
S2383       S  0.72971916  0.98837025  0.38923267    -0.33500
S2384       S  0.63888496  0.85214214  0.31971801    -0.33500
H2385       H  0.61324741  0.85645505  0.31259939     0.27900
H2386       H  0.70790382  0.99897327  0.38754429     0.27900
H2387       H  0.66219011  0.95288233  0.37903121     0.18500
H2388       H  0.70235728  0.88320870  0.33992886     0.18500
C2389       C  0.86408321  0.51082943  0.21233041    -0.07300
C2390       C  0.87291333  0.98894694  0.22330562    -0.18500
C2391       C  0.86636646  0.97637984  0.25870153     0.09900
C2392       C  0.85096769  0.98617551  0.28378034    -0.07300
C2393       C  0.84380302  0.50937434  0.27291420    -0.18500
C2394       C  0.84999607  0.52159644  0.23772547     0.09900
S2395       S  0.87593457  0.94631779  0.26898147    -0.33500
S2396       S  0.83749211  0.54951786  0.22669254    -0.33500
H2397       H  0.85540726  0.56174118  0.19489642     0.27900
H2398       H  0.84648831  0.92592739  0.28487337     0.27900
H2399       H  0.88316559  0.98019592  0.20355396     0.18500
H2400       H  0.83265564  0.51777335  0.29187566     0.18500
C2401       C  0.79067205  0.71869011  0.15329865    -0.07300
C2402       C  0.81384199  0.71187465  0.16432809    -0.18500
C2403       C  0.84573114  0.73489164  0.16341081     0.09900
C2404       C  0.85516175  0.76473528  0.14850630    -0.07300
C2405       C  0.83207198  0.77296683  0.14193266    -0.18500
C2406       C  0.79978017  0.75036171  0.14535872     0.09900
S2407       S  0.87361225  0.72396102  0.17858680    -0.33500
S2408       S  0.77052788  0.76135276  0.13585869    -0.33500
H2409       H  0.79169764  0.79355679  0.12985090     0.27900
H2410       H  0.89934797  0.75477531  0.18204158     0.27900
H2411       H  0.80735861  0.68797934  0.17108177     0.18500
H2412       H  0.83916435  0.79604254  0.13100864     0.18500
C2413       C  0.77325382  0.55349782  0.14537902    -0.07300
C2414       C  0.77890838  0.58030231  0.16503286    -0.18500
C2415       C  0.75637459  0.58983571  0.16605826     0.09900
C2416       C  0.72842390  0.57348859  0.14498143    -0.07300
C2417       C  0.72088964  0.54431149  0.12977478    -0.18500
C2418       C  0.74280690  0.53386824  0.13042402     0.09900
S2419       S  0.76629983  0.62529695  0.19119888    -0.33500
S2420       S  0.73193267  0.49718266  0.10781392    -0.33500
H2421       H  0.74863097  0.48881958  0.13209266     0.27900
H2422       H  0.73669235  0.62303395  0.18839048     0.27900
H2423       H  0.80183896  0.59515658  0.17735093     0.18500
H2424       H  0.69948788  0.53130288  0.11386660     0.18500
C2425       C  0.72835533  0.78410603  0.34164354    -0.07300
C2426       C  0.72273312  0.80746953  0.32797117    -0.18500
C2427       C  0.74716750  0.83899442  0.32647683     0.09900
C2428       C  0.77641389  0.84790565  0.34301585    -0.07300
C2429       C  0.78319776  0.82433128  0.35220777    -0.18500
C2430       C  0.75987529  0.79245205  0.34977041     0.09900
S2431       S  0.73982378  0.86741318  0.30468529    -0.33500
S2432       S  0.77115892  0.76387434  0.36100413    -0.33500
H2433       H  0.75224857  0.74240035  0.33379758     0.27900
H2434       H  0.77153562  0.89161629  0.30295071     0.27900
H2435       H  0.69911580  0.80143935  0.31994595     0.18500
H2436       H  0.80589991  0.83076126  0.36405332     0.18500
C2437       C  0.64925073  0.63089315  0.21095908    -0.07300
C2438       C  0.63292551  0.64688615  0.21892194    -0.18500
C2439       C  0.62885722  0.65370963  0.25487224     0.09900
C2440       C  0.64110844  0.64419594  0.28376933    -0.07300
C2441       C  0.65541789  0.62623230  0.27591208    -0.18500
C2442       C  0.65920954  0.61910530  0.23994477     0.09900
S2443       S  0.61227252  0.67865549  0.26182869    -0.33500
S2444       S  0.67998664  0.59800563  0.23284118    -0.33500
H2445       H  0.65660751  0.57526695  0.20986956     0.27900
H2446       H  0.63903212  0.70054673  0.28144510     0.27900
H2447       H  0.62528695  0.65613245  0.19685661     0.18500
H2448       H  0.66472989  0.61862828  0.29795859     0.18500
C2449       C  0.57998467  0.72104301  0.35786963    -0.07300
C2450       C  0.55264663  0.71318546  0.37787170    -0.18500
C2451       C  0.54073589  0.73386709  0.37963363     0.09900
C2452       C  0.55607591  0.76274839  0.36055881    -0.07300
C2453       C  0.58023251  0.76815713  0.33636556    -0.18500
C2454       C  0.59271260  0.74803975  0.33512484     0.09900
S2455       S  0.50791272  0.72366669  0.40953342    -0.33500
S2456       S  0.62737502  0.76068581  0.30730777    -0.33500
H2457       H  0.63061543  0.73433632  0.31285658     0.27900
H2458       H  0.49566230  0.73908000  0.38878150     0.27900
H2459       H  0.54273814  0.69281515  0.39560232     0.18500
H2460       H  0.59134749  0.78966737  0.32078129     0.18500
C2461       C  0.62039051  0.65021267  0.05390130    -0.07300
C2462       C  0.62395329  0.68054793  0.05276252    -0.18500
C2463       C  0.61345427  0.69080041  0.02311222     0.09900
C2464       C  0.59731768  0.66992281  0.99382744    -0.07300
C2465       C  0.59133350  0.63867480  0.99651560    -0.18500
C2466       C  0.60253587  0.62866861  0.02592234     0.09900
S2467       S  0.62472443  0.73180711  0.02302593    -0.33500
S2468       S  0.59555331  0.58902840  0.02430355    -0.33500
H2469       H  0.58499247  0.58249336  0.06061048     0.27900
H2470       H  0.63882844  0.73736361  0.98834149     0.27900
H2471       H  0.63749377  0.69751920  0.07390975     0.18500
H2472       H  0.57849780  0.62192032  0.97492944     0.18500
C2473       C  0.92882999  0.59006446  0.00734400    -0.07300
C2474       C  0.91881160  0.59706703  0.97469535    -0.18500
C2475       C  0.93847052  0.60772813  0.94384320     0.09900
C2476       C  0.96979556  0.61324969  0.94579359    -0.07300
C2477       C  0.97934952  0.60535955  0.97827828    -0.18500
C2478       C  0.95934284  0.59366610  0.00857554     0.09900
S2479       S  0.92164791  0.61280108  0.90262477    -0.33500
S2480       S  0.97530719  0.58658470  0.04925693    -0.33500
H2481       H  0.95592004  0.55367155  0.04621341     0.27900
H2482       H  0.93596136  0.60021949  0.88017430     0.27900
H2483       H  0.89518639  0.59350813  0.97292096     0.18500
H2484       H  0.00319202  0.60962566  0.98084702     0.18500
C2485       C  0.52000366  0.74280765  0.97067766    -0.07300
C2486       C  0.49203444  0.74191735  0.96035644    -0.18500
C2487       C  0.48086058  0.75859898  0.97993928     0.09900
C2488       C  0.99745733  0.77577932  0.01106983    -0.07300
C2489       C  0.02679578  0.77896392  0.01943126    -0.18500
C2490       C  0.03788446  0.76208534  0.00012263     0.09900
S2491       S  0.44609241  0.75811283  0.96333920    -0.33500
S2492       S  0.07329966  0.76390336  0.01670230    -0.33500
H2493       H  0.06200989  0.73154292  0.01138090     0.27900
H2494       H  0.45546256  0.78838830  0.97687681     0.27900
H2495       H  0.47915240  0.72873867  0.93637800     0.18500
H2496       H  0.03970820  0.79210105  0.04341536     0.18500
C2497       C  0.99154893  0.63557331  0.71224528    -0.07300
C2498       C  0.97461117  0.64313048  0.73685368    -0.18500
C2499       C  0.98239168  0.64774260  0.77368837     0.09900
C2500       C  0.50870259  0.64601295  0.78657314    -0.07300
C2501       C  0.52451317  0.63636530  0.76240951    -0.18500
C2502       C  0.51629967  0.63127293  0.72522228     0.09900
S2503       S  0.95747253  0.65566071  0.80271476    -0.33500
S2504       S  0.53960564  0.62157711  0.69559779    -0.33500
H2505       H  0.53831198  0.63808472  0.66507941     0.27900
H2506       H  0.45959050  0.63878529  0.83228208     0.27900
H2507       H  0.95517944  0.64577352  0.72713494     0.18500
H2508       H  0.54455966  0.63478305  0.77197355     0.18500
C2509       C  0.54002204  0.63966283  0.55218177    -0.07300
C2510       C  0.56920555  0.66804225  0.55484385    -0.18500
C2511       C  0.59097688  0.67930432  0.52589651     0.09900
C2512       C  0.58353156  0.66256673  0.49252690    -0.07300
C2513       C  0.55561497  0.63307184  0.49082472    -0.18500
C2514       C  0.53406673  0.62129655  0.51998500     0.09900
S2515       S  0.62780795  0.71507147  0.53344471    -0.33500
S2516       S  0.49874137  0.58335138  0.51435247    -0.33500
H2517       H  0.00581892  0.57568758  0.47995842     0.27900
H2518       H  0.64583544  0.70469202  0.51435398     0.27900
H2519       H  0.57486680  0.68226122  0.57938865     0.18500
H2520       H  0.55003310  0.61953188  0.46578976     0.18500
C2521       C  0.99551601  0.71915237  0.52025421    -0.07300
C2522       C  0.97547579  0.73155078  0.51447645    -0.18500
C2523       C  0.98620684  0.76014483  0.49697852     0.09900
C2524       C  0.51759614  0.77677683  0.48520252    -0.07300
C2525       C  0.53811523  0.76541986  0.49230526    -0.18500
C2526       C  0.52720885  0.73635080  0.50884529     0.09900
S2527       S  0.95890614  0.77417319  0.49012060    -0.33500
S2528       S  0.55409749  0.72158095  0.51141687    -0.33500
H2529       H  0.53108037  0.69007368  0.50407485     0.27900
H2530       H  0.98191032  0.80627387  0.48755714     0.27900
H2531       H  0.95137181  0.71925104  0.52424333     0.18500
H2532       H  0.56199427  0.77783263  0.48176025     0.18500
C2533       C  0.91704130  0.56328940  0.50366922    -0.07300
C2534       C  0.91644874  0.57481180  0.46877656    -0.18500
C2535       C  0.90627864  0.55505861  0.43797568     0.09900
C2536       C  0.89529334  0.52249212  0.44176938    -0.07300
C2537       C  0.89770645  0.51128373  0.47602439    -0.18500
C2538       C  0.90877856  0.53107388  0.50664371     0.09900
S2539       S  0.90796362  0.57294878  0.39459070    -0.33500
S2540       S  0.91024149  0.51262501  0.54845486    -0.33500
H2541       H  0.94225154  0.53441192  0.55483821     0.27900
H2542       H  0.91350677  0.55187969  0.37411269     0.27900
H2543       H  0.92374614  0.59946554  0.46532761     0.18500
H2544       H  0.88947544  0.48641204  0.47949999     0.18500
C2545       C  0.58499144  0.85086995  0.84724799    -0.07300
C2546       C  0.60812091  0.84336975  0.83720810    -0.18500
C2547       C  0.60216509  0.81229033  0.83837950     0.09900
C2548       C  0.57239745  0.78786936  0.84999102    -0.07300
C2549       C  0.54800164  0.79493928  0.85434648    -0.18500
C2550       C  0.55402164  0.82604771  0.85302528     0.09900
S2551       S  0.63384488  0.80560184  0.82652566    -0.33500
S2552       S  0.52219499  0.83301042  0.86366506    -0.33500
H2553       H  0.53621480  0.86319306  0.84810226     0.27900
H2554       H  0.61338712  0.77600116  0.81087358     0.27900
H2555       H  0.63199388  0.86225990  0.83224440     0.18500
H2556       H  0.52459257  0.77659960  0.86213812     0.18500
C2557       C  0.64938888  0.52878518  0.94330345    -0.07300
C2558       C  0.68008720  0.55537705  0.94397408    -0.18500
C2559       C  0.69100165  0.57704664  0.97304635     0.09900
C2560       C  0.67132283  0.57218588  0.00343675    -0.07300
C2561       C  0.64013254  0.54655582  0.00199746    -0.18500
C2562       C  0.62887653  0.52511167  0.97251764     0.09900
S2563       S  0.73010825  0.61058521  0.96908448    -0.33500
S2564       S  0.58859223  0.99284010  0.97380107    -0.33500
H2565       H  0.57877742  0.00322389  0.00426566     0.27900
H2566       H  0.72110846  0.63220211  0.98111215     0.27900
H2567       H  0.69626246  0.55920878  0.92184261     0.18500
H2568       H  0.62456987  0.54263842  0.02479054     0.18500
C2569       C  0.77908644  0.51395616  0.01863288    -0.07300
C2570       C  0.76806614  0.98342525  0.00582638    -0.18500
C2571       C  0.74026729  0.96786150  0.98593069     0.09900
C2572       C  0.72335611  0.98368003  0.97881575    -0.07300
C2573       C  0.73457709  0.51439206  0.99185568    -0.18500
C2574       C  0.76224263  0.52964584  0.01220223     0.09900
S2575       S  0.72780897  0.92846935  0.96927704    -0.33500
S2576       S  0.77476252  0.56808404  0.03167473    -0.33500
H2577       H  0.74770561  0.56947847  0.02219007     0.27900
H2578       H  0.75442520  0.92695034  0.98052416     0.27900
H2579       H  0.78097668  0.97151798  0.01247632     0.18500
H2580       H  0.72159286  0.52638016  0.98611248     0.18500
C2581       C  0.56878380  0.90394164  0.98772492    -0.07300
C2582       C  0.58105364  0.91084142  0.02346626    -0.18500
C2583       C  0.56129464  0.90211491  0.05422768     0.09900
C2584       C  0.52820775  0.88572040  0.04972003    -0.07300
C2585       C  0.51591724  0.88000093  0.01414806    -0.18500
C2586       C  0.53552522  0.88854514  0.98327576     0.09900
S2587       S  0.57972759  0.91277347  0.09852731    -0.33500
S2588       S  0.51709927  0.87724722  0.93882398    -0.33500
H2589       H  0.48556330  0.86071973  0.95053850     0.27900
H2590       H  0.55505598  0.91465645  0.11570316     0.27900
H2591       H  0.60634984  0.92317214  0.02758299     0.18500
H2592       H  0.49057862  0.86687759  0.01056089     0.18500
C2593       C  0.67440601  0.58834761  0.50129144    -0.07300
C2594       C  0.69478024  0.59971191  0.47108371    -0.18500
C2595       C  0.68792872  0.61246992  0.44057991     0.09900
C2596       C  0.66010755  0.61446387  0.43976778    -0.07300
C2597       C  0.63863943  0.60113890  0.46851462    -0.18500
C2598       C  0.64517345  0.58794058  0.49884787     0.09900
S2599       S  0.71619600  0.62670447  0.40385702    -0.33500
S2600       S  0.61518079  0.57189471  0.53354284    -0.33500
H2601       H  0.61586228  0.54371172  0.53627227     0.27900
H2602       H  0.69433669  0.62225749  0.37633646     0.27900
H2603       H  0.71682473  0.59963588  0.47157078     0.18500
H2604       H  0.61730689  0.60260083  0.46837976     0.18500
C2605       C  0.85735760  0.56800201  0.63567817    -0.07300
C2606       C  0.84714326  0.58370432  0.65929071    -0.18500
C2607       C  0.81585517  0.57760931  0.65831202     0.09900
C2608       C  0.79438829  0.55585365  0.63270746    -0.07300
C2609       C  0.80368963  0.53759172  0.61233525    -0.18500
C2610       C  0.83464631  0.54329568  0.61372793     0.09900
S2611       S  0.80489496  0.59832472  0.69011939    -0.33500
S2612       S  0.84503910  0.52122598  0.58299012    -0.33500
H2613       H  0.87158706  0.52622401  0.60308554     0.27900
H2614       H  0.77243186  0.57616828  0.68988482     0.27900
H2615       H  0.86423936  0.60267278  0.67636836     0.18500
H2616       H  0.78732352  0.52017645  0.59315072     0.18500
C2617       C  0.65913599  0.50903001  0.71087107    -0.07300
C2618       C  0.68190563  0.52656575  0.73727866    -0.18500
C2619       C  0.67746533  0.51735253  0.77375923     0.09900
C2620       C  0.64991375  0.98931197  0.78434316    -0.07300
C2621       C  0.62647029  0.97235093  0.75821057    -0.18500
C2622       C  0.63076446  0.98184034  0.72156368     0.09900
S2623       S  0.70790630  0.54247665  0.80548753    -0.33500
S2624       S  0.60086717  0.95633009  0.68948993    -0.33500
H2625       H  0.60431847  0.98003031  0.66551579     0.27900
H2626       H  0.68655558  0.53981505  0.83274146     0.27900
H2627       H  0.70367566  0.54737022  0.72924012     0.18500
H2628       H  0.60539911  0.95076640  0.76602064     0.18500
C2629       C  0.61756300  0.96444354  0.54994213    -0.07300
C2630       C  0.61461770  0.97579223  0.51586122    -0.18500
C2631       C  0.60512075  0.95664281  0.48461928     0.09900
C2632       C  0.59747986  0.92482519  0.48705410    -0.07300
C2633       C  0.59922320  0.91300997  0.52123319    -0.18500
C2634       C  0.60866957  0.93218268  0.55258384     0.09900
S2635       S  0.60598924  0.97514293  0.44191699    -0.33500
S2636       S  0.60818559  0.91377765  0.59514586    -0.33500
H2637       H  0.59843399  0.93165917  0.61556962     0.27900
H2638       H  0.61823144  0.95932086  0.42160319     0.27900
H2639       H  0.62201998  0.00048954  0.51275838     0.18500
H2640       H  0.59261720  0.88844652  0.52367213     0.18500
C2641       C  0.77475826  0.98301350  0.48004351    -0.07300
C2642       C  0.77423229  0.01004175  0.46886790    -0.18500
C2643       C  0.75581609  0.01995687  0.48696975     0.09900
C2644       C  0.73852227  0.50327976  0.51790775    -0.07300
C2645       C  0.73943898  0.47654543  0.52951048    -0.18500
C2646       C  0.75769756  0.46647578  0.51118042     0.09900
S2647       S  0.75420642  0.05307928  0.46824088    -0.33500
S2648       S  0.75955201  0.43347992  0.52976781    -0.33500
H2649       H  0.79059463  0.94391665  0.51801746     0.27900
H2650       H  0.72289590  0.04241839  0.47895865     0.27900
H2651       H  0.78660973  0.02239841  0.44439506     0.18500
H2652       H  0.72728035  0.46444332  0.55419343     0.18500
C2653       C  0.90353142  0.82750174  0.00614236    -0.07300
C2654       C  0.91362947  0.82473548  0.97106117    -0.18500
C2655       C  0.90649862  0.83677594  0.94005113     0.09900
C2656       C  0.88918838  0.85253623  0.94383859    -0.07300
C2657       C  0.87957046  0.85579324  0.97892845    -0.18500
C2658       C  0.88558675  0.84271791  0.00962541     0.09900
S2659       S  0.92035917  0.83149606  0.89649329    -0.33500
S2660       S  0.86694672  0.84362360  0.05168099    -0.33500
H2661       H  0.85843788  0.81269500  0.06174582     0.27900
H2662       H  0.92230656  0.85828267  0.88011874     0.27900
H2663       H  0.92750884  0.81343223  0.96769376     0.18500
H2664       H  0.86488942  0.86636256  0.98214081     0.18500
C2665       C  0.79039833  0.77871370  0.98676143    -0.07300
C2666       C  0.79447542  0.75276640  0.98088415    -0.18500
C2667       C  0.77935876  0.72641146  0.00311344     0.09900
C2668       C  0.75859112  0.72565929  0.03036944    -0.07300
C2669       C  0.75777234  0.75325408  0.03850751    -0.18500
C2670       C  0.77464282  0.78015552  0.01802148     0.09900
S2671       S  0.78773221  0.69513420  0.99513943    -0.33500
S2672       S  0.77434214  0.81521221  0.03230773    -0.33500
H2673       H  0.80404703  0.83595398  0.01721650     0.27900
H2674       H  0.79286646  0.69215662  0.03229992     0.27900
H2675       H  0.80780242  0.75214431  0.95760494     0.18500
H2676       H  0.74354153  0.75398291  0.06068001     0.18500
C2677       C  0.71591404  0.75913198  0.86745034    -0.07300
C2678       C  0.69867208  0.76153271  0.83835811    -0.18500
C2679       C  0.66688256  0.73858048  0.83282809     0.09900
C2680       C  0.65158442  0.71349252  0.85764033    -0.07300
C2681       C  0.67007877  0.70867395  0.88310414    -0.18500
C2682       C  0.70193371  0.73122506  0.88836317     0.09900
S2683       S  0.64614999  0.74334254  0.79522852    -0.33500
S2684       S  0.72220480  0.72522114  0.92554206    -0.33500
H2685       H  0.72786215  0.75290058  0.94357675     0.27900
H2686       H  0.61983876  0.71273367  0.79675523     0.27900
H2687       H  0.70964530  0.78183753  0.82066748     0.18500
H2688       H  0.65867031  0.68956391  0.90249173     0.18500
C2689       C  0.76636526  0.90383402  0.85666206    -0.07300
C2690       C  0.77602467  0.93455429  0.86825178    -0.18500
C2691       C  0.75421669  0.94496217  0.87256684     0.09900
C2692       C  0.72177747  0.92402187  0.86472305    -0.07300
C2693       C  0.71290868  0.89438257  0.84964382    -0.18500
C2694       C  0.73488004  0.88435271  0.84513666     0.09900
S2695       S  0.76790886  0.98352735  0.89250490    -0.33500
S2696       S  0.72089036  0.84522027  0.82754294    -0.33500
H2697       H  0.75074338  0.84979085  0.81827926     0.27900
H2698       H  0.79924387  0.99131047  0.89910496     0.27900
H2699       H  0.80003592  0.94916691  0.87774907     0.18500
H2700       H  0.68844275  0.87835662  0.84280149     0.18500
C2701       C  0.83606322  0.91830430  0.99192856    -0.07300
C2702       C  0.81756168  0.90843155  0.02373982    -0.18500
C2703       C  0.82556749  0.92774802  0.05480865     0.09900
C2704       C  0.85235635  0.95837253  0.05445250    -0.07300
C2705       C  0.87217295  0.96751564  0.02389168    -0.18500
C2706       C  0.86469614  0.94779216  0.99308644     0.09900
S2707       S  0.79989641  0.91239837  0.09385110    -0.33500
S2708       S  0.89273809  0.96205691  0.95631772    -0.33500
H2709       H  0.89310889  0.93368105  0.95333039     0.27900
H2710       H  0.82282001  0.93152554  0.11974545     0.27900
H2711       H  0.79604172  0.88577875  0.02423155     0.18500
H2712       H  0.89274444  0.99093711  0.02311797     0.18500
C2713       C  0.84190620  0.90017224  0.48797130    -0.07300
C2714       C  0.82762147  0.89776155  0.52211599    -0.18500
C2715       C  0.83824397  0.89038550  0.55420360     0.09900
C2716       C  0.86340191  0.88399571  0.55281980    -0.07300
C2717       C  0.87830580  0.88730196  0.51896645    -0.18500
C2718       C  0.86836115  0.89563342  0.48708422     0.09900
S2719       S  0.81862047  0.88984269  0.59599136    -0.33500
S2720       S  0.89050129  0.89938515  0.44634646    -0.33500
H2721       H  0.89813610  0.93077670  0.44054896     0.27900
H2722       H  0.84621458  0.90287816  0.61732313     0.27900
H2723       H  0.80791646  0.90182577  0.52409258     0.18500
H2724       H  0.89746901  0.88239074  0.51687590     0.18500
C2725       C  0.78864895  0.78263256  0.51130302    -0.07300
C2726       C  0.76233761  0.78589675  0.51813635    -0.18500
C2727       C  0.73586273  0.77108186  0.49556791     0.09900
C2728       C  0.73557974  0.75145095  0.46698319    -0.07300
C2729       C  0.76326397  0.75101158  0.45854595    -0.18500
C2730       C  0.79012859  0.76767413  0.47929143     0.09900
S2731       S  0.70344025  0.77790215  0.50378125    -0.33500
S2732       S  0.82555447  0.76893170  0.46370441    -0.33500
H2733       H  0.84538385  0.79940338  0.47776811     0.27900
H2734       H  0.71872757  0.80212050  0.52978511     0.27900
H2735       H  0.76175300  0.79834207  0.54232394     0.18500
H2736       H  0.76422106  0.73754903  0.43558389     0.18500
C2737       C  0.77628152  0.70921079  0.62785578    -0.07300
C2738       C  0.78066756  0.69056141  0.65343135    -0.18500
C2739       C  0.75739723  0.65889748  0.65876901     0.09900
C2740       C  0.73008859  0.64495084  0.63679859    -0.07300
C2741       C  0.72413816  0.66452637  0.61451337    -0.18500
C2742       C  0.74679731  0.69639644  0.60994311     0.09900
S2743       S  0.76427066  0.63663241  0.69254210    -0.33500
S2744       S  0.73863080  0.71820683  0.57673538    -0.33500
H2745       H  0.76392704  0.72277182  0.55451434     0.27900
H2746       H  0.73310443  0.61122753  0.69363136     0.27900
H2747       H  0.80265559  0.70037383  0.66843404     0.18500
H2748       H  0.70345855  0.65411325  0.59709364     0.18500
C2749       C  0.86624715  0.83845543  0.71380817    -0.07300
C2750       C  0.87033464  0.86788094  0.72402840    -0.18500
C2751       C  0.86159166  0.87265185  0.75890752     0.09900
C2752       C  0.84895543  0.84756167  0.78416818    -0.07300
C2753       C  0.84712993  0.81893301  0.77436914    -0.18500
C2754       C  0.85579832  0.81424281  0.73974351     0.09900
S2755       S  0.86457697  0.91012510  0.76823728    -0.33500
S2756       S  0.85219367  0.77649346  0.72974847    -0.33500
H2757       H  0.87542666  0.78743504  0.70241451     0.27900
H2758       H  0.83505233  0.89711616  0.78551672     0.27900
H2759       H  0.87799831  0.88640057  0.70388238     0.18500
H2760       H  0.83864058  0.79981433  0.79381751     0.18500
C2761       C  0.93590933  0.71425837  0.63011074    -0.07300
C2762       C  0.95752574  0.74512066  0.61874823    -0.18500
C2763       C  0.95001880  0.76917969  0.61994243     0.09900
C2764       C  0.92046218  0.76276056  0.63350613    -0.07300
C2765       C  0.90007745  0.73275553  0.64805282    -0.18500
C2766       C  0.90740702  0.70844798  0.64637549     0.09900
S2767       S  0.97713141  0.80620442  0.59882202    -0.33500
S2768       S  0.87982176  0.66993308  0.66381211    -0.33500
H2769       H  0.85678374  0.67707308  0.67551551     0.27900
H2770       H  0.96790890  0.82445327  0.61937213     0.27900
H2771       H  0.97947395  0.74999458  0.60602990     0.18500
H2772       H  0.87708967  0.72759449  0.65770529     0.18500
C2773       C  0.92952872  0.83544299  0.50107720    -0.07300
C2774       C  0.91777602  0.81987400  0.46755529    -0.18500
C2775       C  0.93618486  0.82927202  0.43595821     0.09900
C2776       C  0.96769195  0.85418700  0.43757682    -0.07300
C2777       C  0.97852745  0.87197458  0.46974347    -0.18500
C2778       C  0.95981172  0.86319628  0.50144323     0.09900
S2779       S  0.91917849  0.80683938  0.39475397    -0.33500
S2780       S  0.97595646  0.88720443  0.54198215    -0.33500
H2781       H  0.00361729  0.91140372  0.52604464     0.27900
H2782       H  0.94074265  0.83000907  0.37081497     0.27900
H2783       H  0.89456777  0.79920323  0.46608645     0.18500
H2784       H  0.00280663  0.89093761  0.47103530     0.18500
loop_ 
_geom_bond_atom_site_label_1 
_geom_bond_atom_site_label_2 
_geom_bond_distance 
_geom_bond_site_symmetry_2 
_ccdc_geom_bond_type 
O1           C16   1.265       .  A
O1           Al9   1.918       .  S
C2           O12   1.266       .  A
C2            O3   1.264       .  A
C2          C628   1.505       .  S
O3           Al5   1.917       .  S
O4            C6   1.253       .  A
O4           Al5   1.867       .  S
Al5          O13   1.873       .  S
Al5          O15   1.928       .  S
Al5          O14   1.783       .  S
C6           O19   1.259       .  A
C6          C637   1.451       .  S
O7           C17   1.262       .  A
O7           Al9   1.913       .  S
O8           C21   1.274       .  A
O8          Al18   1.941       .  S
Al9          O22   1.892       .  S
Al9          O19   1.878       .  S
Al9          O14   1.762       .  S
O10          C17   1.258       .  A
O10         Al18   1.915       .  S
O11          C20   1.266       .  A
O11         Al18   1.941       .  S
O12         Al18   1.925       .  S
O13          C20   1.258       .  A
O14         Al18   1.785       .  S
O15          C16   1.264       .  A
C16         C649   1.485       .  S
C17         C685   1.498       .  S
C20         C661   1.465       .  S
C21          O22   1.262       .  A
C21         C676   1.477       .  S
O23          C38   1.263       .  A
O23         Al31   1.915       .  S
C24          O34   1.263       .  A
C24          O25   1.261       .  A
C24         C568   1.487       .  S
O25         Al27   1.918       .  S
O26          C28   1.253       .  A
O26         Al27   1.864       .  S
Al27         O35   1.871       .  S
Al27         O37   1.931       .  S
Al27         O36   1.788       .  S
C28          O41   1.260       .  A
C28         C577   1.448       .  S
O29          C39   1.261       .  A
O29         Al31   1.913       .  S
O30          C43   1.273       .  A
O30         Al40   1.934       .  S
Al31         O44   1.885       .  S
Al31         O41   1.879       .  S
Al31         O36   1.763       .  S
O32          C39   1.261       .  A
O32         Al40   1.928       .  S
O33          C42   1.270       .  A
O33         Al40   1.949       .  S
O34         Al40   1.917       .  S
O35          C42   1.260       .  A
O36         Al40   1.786       .  S
O37          C38   1.262       .  A
C38         C589   1.485       .  S
C39         C613   1.503       .  S
C42         C664   1.479       .  S
C43          O44   1.262       .  A
C43         C601   1.473       .  S
O45          C60   1.269       .  A
O45         Al53   1.938       .  S
C46          O47   1.260       .  A
C46         O752   1.262       .  A
C46         C541   1.495       .  S
O47        Al745   1.913       .  S
O48          C50   1.258   1_565  A
O48         Al49   1.883   1_565  S
Al49         O57   1.877       .  S
Al49         O59   1.911       .  S
Al49        O743   1.913   1_545  S
Al49         O58   1.790       .  S
C50          O63   1.258       .  A
C50         C556   1.457       .  S
O51          C61   1.267       .  A
O51         Al53   1.932       .  S
O52          C65   1.270       .  A
O52         Al62   1.936       .  S
Al53         O66   1.888       .  S
Al53         O63   1.884       .  S
Al53         O58   1.774       .  S
O54          C61   1.260       .  A
O54         Al62   1.915       .  S
O55          C64   1.267       .  A
O55         Al62   1.938       .  S
O56         C742   1.262   1_545  A
O56         Al62   1.914       .  S
O57          C64   1.258       .  A
O58         Al62   1.789       .  S
O59          C60   1.261       .  A
C60         C520   1.490       .  S
C61         C505   1.505       .  S
C64         C529   1.471       .  S
C65          O66   1.260       .  A
C65         C652   1.476       .  S
O67          C82   1.268       .  A
O67         Al75   1.922       .  S
C68          O69   1.264       .  A
C68         O774   1.269   1_545  A
C68         C469   1.506       .  S
O69        Al767   1.914   1_545  S
O70          C72   1.254       .  A
O70         Al71   1.864       .  S
Al71         O79   1.876       .  S
Al71         O81   1.905       .  S
Al71        O765   1.914       .  S
Al71         O80   1.777       .  S
C72          O85   1.254       .  A
C72         C484   1.455       .  S
O73          C83   1.264       .  A
O73         Al75   1.922       .  S
O74          C87   1.274       .  A
O74         Al84   1.943       .  S
Al75         O88   1.891       .  S
Al75         O85   1.877       .  S
Al75         O80   1.774       .  S
O76          C83   1.263       .  A
O76         Al84   1.929       .  S
O77          C86   1.266       .  A
O77         Al84   1.947       .  S
O78         C764   1.269       .  A
O78         Al84   1.932       .  S
O79          C86   1.255       .  A
O80         Al84   1.779       .  S
O81          C82   1.260       .  A
C82         C604   1.491       .  S
C83         C493   1.502       .  S
C86         C532   1.479       .  S
C87          O88   1.262       .  A
C87         C457   1.474       .  S
O89         C104   1.268       .  A
O89         Al97   1.923       .  S
C90          O91   1.266       .  A
C90        O1492   1.267   1_455  A
C90         C421   1.507       .  S
O91       Al1485   1.923   1_455  S
O92          C94   1.255       .  A
O92         Al93   1.875       .  S
Al93        O101   1.876       .  S
Al93        O103   1.916       .  S
Al93       O1483   1.923       .  S
Al93        O102   1.783       .  S
C94         O107   1.255       .  A
C94         C433   1.461       .  S
O95         C105   1.266       .  A
O95         Al97   1.926       .  S
O96         C109   1.276       .  A
O96        Al106   1.952       .  S
Al97        O110   1.883       .  S
Al97        O107   1.871       .  S
Al97        O102   1.773       .  S
O98         C105   1.257       .  A
O98        Al106   1.909       .  S
O99         C108   1.261       .  A
O99        Al106   1.933       .  S
O100       C1482   1.267       .  A
O100       Al106   1.924       .  S
O101        C108   1.256       .  A
O102       Al106   1.785       .  S
O103        C104   1.264       .  A
C104        C673   1.492       .  S
C105        C445   1.499       .  S
C108        C409   1.469       .  S
C109        O110   1.260       .  A
C109        C517   1.477       .  S
O111        C126   1.269       .  A
O111       Al119   1.927       .  S
C112        O113   1.259       .  A
C112       O1514   1.263       .  A
C112        C388   1.499       .  S
O113      Al1507   1.912       .  S
O114        C116   1.256       .  A
O114       Al115   1.873       .  S
Al115       O123   1.863       .  S
Al115       O125   1.907       .  S
Al115      O1505   1.912   1_455  S
Al115       O124   1.782       .  S
C116        O129   1.256       .  A
C116        C397   1.458       .  S
O117        C127   1.265       .  A
O117       Al119   1.924       .  S
O118        C131   1.270       .  A
O118       Al128   1.938       .  S
Al119       O132   1.882       .  S
Al119       O129   1.888       .  S
Al119       O124   1.778       .  S
O120        C127   1.264       .  A
O120       Al128   1.920       .  S
O121        C130   1.268       .  A
O121       Al128   1.951       .  S
O122       C1504   1.263   1_455  A
O122       Al128   1.917       .  S
O123        C130   1.255       .  A
O124       Al128   1.791       .  S
O125        C126   1.262       .  A
C126        C460   1.497       .  S
C127        C376   1.503       .  S
C130        C412   1.480       .  S
C131        O132   1.259       .  A
C131        C592   1.475       .  S
O133        C148   1.252       .  A
O133       Al141   1.847       .  S
C134        O144   1.257       .  A
C134        O135   1.278       .  A
C134        C508   1.488       .  S
O135       Al137   1.971       .  S
O136        C138   1.253       .  A
O136       Al137   1.878       .  S
Al137       O145   1.906       .  S
Al137       O147   1.968       .  S
Al137       O146   1.780       .  S
C138        O151   1.268       .  A
C138        C424   1.501       .  S
O139        C149   1.254       .  A
O139       Al141   1.878       .  S
O140        C153   1.266       .  A
O140       Al150   1.908       .  S
Al141       O154   1.955       .  S
Al141       O151   1.957       .  S
Al141       O146   1.779       .  S
O142        C149   1.257       .  A
O142       Al150   1.880       .  S
O143        C152   1.255       .  A
O143       Al150   1.898       .  S
O144       Al150   1.863       .  S
O145        C152   1.257       .  A
O146       Al150   1.786       .  S
O147        C148   1.274       .  A
C148        C361   1.478       .  S
C149        C640   1.462       .  S
C152        C352   1.476       .  S
C153        O154   1.274       .  A
C153        C337   1.484       .  S
O155        C170   1.253       .  A
O155       Al163   1.840       .  S
C156        O166   1.258       .  A
C156        O157   1.277       .  A
C156        C373   1.499       .  S
O157       Al159   1.973       .  S
O158        C160   1.253       .  A
O158       Al159   1.880       .  S
Al159       O167   1.897       .  S
Al159       O169   1.971       .  S
Al159       O168   1.786       .  S
C160        O173   1.264       .  A
C160        C472   1.503       .  S
O161        C171   1.257       .  A
O161       Al163   1.884       .  S
O162        C175   1.267       .  A
O162       Al172   1.913       .  S
Al163       O176   1.935       .  S
Al163       O173   1.943       .  S
Al163       O168   1.781       .  S
O164        C171   1.255       .  A
O164       Al172   1.871       .  S
O165        C174   1.254       .  A
O165       Al172   1.892       .  S
O166       Al172   1.859       .  S
O167        C174   1.254       .  A
O168       Al172   1.790       .  S
O169        C170   1.275       .  A
C170        C328   1.479       .  S
C171        C580   1.461       .  S
C174        C349   1.475       .  S
C175        O176   1.269       .  A
C175        C313   1.481       .  S
O177        C192   1.265       .  A
O177       Al185   1.907       .  S
C178        O188   1.262   1_565  A
C178        O875   1.265       .  A
C178        C448   1.487   1_565  S
O179        C874   1.264       .  A
O179       Al181   1.911       .  S
O180        C182   1.264       .  A
O180       Al181   1.936       .  S
Al181       O189   1.949       .  S
Al181       O191   1.925       .  S
Al181       O190   1.784       .  S
C182        O195   1.263       .  A
C182        C625   1.510       .  S
O183        C193   1.260       .  A
O183       Al185   1.895       .  S
O184        C197   1.261       .  A
O184       Al194   1.921       .  S
Al185       O198   1.913       .  S
Al185       O195   1.918       .  S
Al185       O190   1.768       .  S
O186        C193   1.257       .  A
O186       Al194   1.875       .  S
O187        C196   1.258       .  A
O187       Al194   1.871       .  S
O188       Al890   1.916   1_545  S
O189        C196   1.268       .  A
O190       Al194   1.778       .  S
O191        C192   1.268       .  A
C192        C340   1.475       .  S
C193        C553   1.459       .  S
Al194       O884   1.915       .  S
C196        C304   1.485       .  S
C197        O198   1.267       .  A
C197        C292   1.493       .  S
O199        C214   1.257       .  A
O199       Al207   1.865       .  S
C200        O210   1.251       .  A
C200        O897   1.272       .  A
C200        C616   1.486       .  S
O201        C896   1.272   1_545  A
O201       Al203   1.961       .  S
O202        C204   1.252       .  A
O202       Al203   1.878       .  S
Al203       O211   1.902       .  S
Al203       O213   1.974       .  S
Al203       O212   1.787       .  S
C204        O217   1.267       .  A
C204        C385   1.491       .  S
O205        C215   1.258       .  A
O205       Al207   1.876       .  S
O206        C219   1.260       .  A
O206       Al216   1.904       .  S
Al207       O220   1.934       .  S
Al207       O217   1.954       .  S
Al207       O212   1.782       .  S
O208        C215   1.257       .  A
O208       Al216   1.874       .  S
O209        C218   1.257       .  A
O209       Al216   1.894       .  S
O210       Al912   1.854       .  S
O211        C218   1.259       .  A
O212       Al216   1.788       .  S
O213        C214   1.275       .  A
C214        C280   1.482       .  S
C215        C481   1.437       .  S
Al216       O906   1.854   1_545  S
C218        C301   1.465       .  S
C219        O220   1.266       .  A
C219        C325   1.480       .  S
O221        C236   1.266       .  A
O221       Al229   1.909       .  S
C222        O232   1.262       .  A
C222       O1615   1.263   1_455  A
C222        C496   1.491       .  S
O223       C1614   1.263       .  A
O223       Al225   1.918       .  S
O224        C226   1.259       .  A
O224       Al225   1.912       .  S
Al225       O233   1.941       .  S
Al225       O235   1.926       .  S
Al225       O234   1.787       .  S
C226        O239   1.261       .  A
C226        C565   1.495       .  S
O227        C237   1.262       .  A
O227       Al229   1.899       .  S
O228        C241   1.262       .  A
O228       Al238   1.931       .  S
Al229       O242   1.921       .  S
Al229       O239   1.921       .  S
Al229       O234   1.771       .  S
O230        C237   1.256       .  A
O230       Al238   1.870       .  S
O231        C240   1.260       .  A
O231       Al238   1.881       .  S
O232      Al1630   1.922   1_455  S
O233        C240   1.268       .  A
O234       Al238   1.789       .  S
O235        C236   1.269       .  A
C236        C316   1.479       .  S
C237        C400   1.460       .  S
Al238      O1624   1.922       .  S
C240        C265   1.470       .  S
C241        O242   1.265       .  A
C241        C277   1.493       .  S
O243        C258   1.257       .  A
O243       Al251   1.852       .  S
C244        O254   1.252       .  A
C244       O1637   1.271       .  A
C244        C688   1.475       .  S
O245       C1636   1.271   1_455  A
O245       Al247   1.954       .  S
O246        C248   1.252       .  A
O246       Al247   1.887       .  S
Al247       O255   1.908       .  S
Al247       O257   1.969       .  S
Al247       O256   1.789       .  S
C248        O261   1.260       .  A
C248        C544   1.486       .  S
O249        C259   1.254       .  A
O249       Al251   1.868       .  S
O250        C263   1.262       .  A
O250       Al260   1.910       .  S
Al251       O264   1.935       .  S
Al251       O261   1.928       .  S
Al251       O256   1.782       .  S
O252        C259   1.260       .  A
O252       Al260   1.892       .  S
O253        C262   1.256       .  A
O253       Al260   1.890       .  S
O254      Al1652   1.842       .  S
O255        C262   1.259       .  A
O256       Al260   1.791       .  S
O257        C258   1.275       .  A
C258        C289   1.482       .  S
C259        C436   1.441       .  S
Al260      O1646   1.842   1_455  S
C262        C268   1.479       .  S
C263        O264   1.266       .  A
C263        C364   1.479       .  S
C265        C266   1.403       .  A
C265       C1662   1.408       .  A
C266       C1659   1.401       .  A
C266        H275   1.084       .  S
C267        C268   1.413       .  A
C267       C1658   1.401       .  A
C267       S1663   1.800       .  S
C268        C269   1.407   1_455  A
C269        C270   1.399       .  A
C269        H276   1.084       .  S
C270       C1657   1.408       .  A
C270        S272   1.800       .  S
S271       C1659   1.800       .  S
S271       H1666   1.403       .  S
S272        H273   1.404       .  S
H274       S1663   1.403       .  S
C277        C278   1.400       .  A
C277        C282   1.417       .  A
C278        C279   1.400       .  A
C278        H287   1.074       .  S
C279        C280   1.412       .  A
C279        S283   1.800       .  S
C280        C281   1.403       .  A
C281        C282   1.410       .  A
C281        H288   1.083       .  S
C282        S284   1.801       .  S
S283        H286   1.406       .  S
S284        H285   1.407       .  S
C289        C290   1.403       .  A
C289        C294   1.412       .  A
C290        C291   1.413       .  A
C290        H299   1.083       .  S
C291        C292   1.423       .  A
C291        S295   1.805       .  S
C292        C293   1.397       .  A
C293        C294   1.391       .  A
C293        H300   1.073       .  S
C294        S296   1.799       .  S
S295        H298   1.407       .  S
S296        H297   1.401       .  S
C301        C306   1.409       .  A
C301        C998   1.403   1_545  A
C302        C303   1.405       .  A
C302        C997   1.403       .  A
C302        H311   1.084       .  S
C303        C304   1.416       .  A
C303        S307   1.800       .  S
C304       C1001   1.407       .  A
C305        C306   1.393       .  A
C305       C1000   1.407   1_545  A
C305        H312   1.084       .  S
C306        S308   1.808       .  S
S307        H310   1.407       .  S
S308        H309   1.402       .  S
C313        C314   1.397       .  A
C313        C318   1.417       .  A
C314        C315   1.396       .  A
C314        H323   1.079       .  S
C315        C316   1.409       .  A
C315        S319   1.792       .  S
C316        C317   1.402       .  A
C317        C318   1.411       .  A
C317        H324   1.083       .  S
C318        S320   1.803       .  S
S319        H322   1.406       .  S
S320        H321   1.407       .  S
C325        C326   1.397       .  A
C325        C330   1.418       .  A
C326        C327   1.400       .  A
C326        H335   1.084       .  S
C327        C328   1.419       .  A
C327        S331   1.803       .  S
C328        C329   1.400       .  A
C329        C330   1.405       .  A
C329        H336   1.084       .  S
C330        S332   1.799   1_545  S
S331        H334   1.404       .  S
S332        H333   1.405       .  S
C337        C338   1.402       .  A
C337        C342   1.418       .  A
C338        C339   1.404       .  A
C338        H347   1.083       .  S
C339        C340   1.409       .  A
C339        S343   1.797       .  S
C340        C341   1.398       .  A
C341        C342   1.402       .  A
C341        H348   1.084       .  S
C342        S344   1.797       .  S
S343        H346   1.407       .  S
S344        H345   1.406       .  S
C349        C350   1.404       .  A
C349        C354   1.412       .  A
C350        C351   1.397       .  A
C350        H359   1.084       .  S
C351        C352   1.410       .  A
C351        S355   1.795       .  S
C352        C353   1.404       .  A
C353        C354   1.398       .  A
C353        H360   1.084       .  S
C354        S356   1.799       .  S
S355        H358   1.404       .  S
S356        H357   1.406       .  S
C361        C362   1.402       .  A
C361        C366   1.421       .  A
C362        C363   1.404       .  A
C362        H371   1.084       .  S
C363        C364   1.414       .  A
C363        S367   1.799       .  S
C364        C365   1.395       .  A
C365        C366   1.399       .  A
C365        H372   1.079       .  S
C366        S368   1.805       .  S
S367        H370   1.405   1_455  S
S368        H369   1.396       .  S
C373        C374   1.410       .  A
C373        C378   1.414       .  A
C374        C375   1.402       .  A
C374        H383   1.084       .  S
C375        C376   1.416   1_554  A
C375        S379   1.799       .  S
C376        C377   1.413       .  A
C377        C378   1.408   1_556  A
C377        H384   1.083       .  S
C378        S380   1.799       .  S
S379        H382   1.408   1_554  S
S380        H381   1.406       .  S
C385        C386   1.402   1_554  A
C385        C390   1.417       .  A
C386        C387   1.407       .  A
C386        H395   1.084       .  S
C387        C388   1.422       .  A
C387        S391   1.800       .  S
C388        C389   1.406       .  A
C389        C390   1.401   1_556  A
C389        H396   1.084       .  S
C390        S392   1.800       .  S
S391        H394   1.407       .  S
S392        H393   1.408       .  S
C397        C398   1.403   1_455  A
C397       C1794   1.410   1_556  A
C398        C399   1.389       .  A
C398        H407   1.084       .  S
C399       C1792   1.407   1_556  A
C399        S403   1.800       .  S
C400        C401   1.402       .  A
C400       C1791   1.407   1_554  A
C401        C402   1.389       .  A
C401        H408   1.084       .  S
C402       C1789   1.410   1_554  A
C402        S404   1.801       .  S
S403        H406   1.405       .  S
S404        H405   1.407       .  S
C409        C410   1.395       .  A
C409       C1806   1.416       .  A
C410        C411   1.390       .  A
C410        H419   1.085       .  S
C411       C1804   1.417       .  A
C411        S415   1.802       .  S
C412        C413   1.405       .  A
C412       C1803   1.417   1_455  A
C413        C414   1.407       .  A
C413        H420   1.083       .  S
C414       C1801   1.416   1_455  A
C414        S416   1.803       .  S
S415       H1810   1.402       .  S
S416        H417   1.404       .  S
H418       S1807   1.402       .  S
C421        C422   1.412       .  A
C421        C426   1.420       .  A
C422        C423   1.408       .  A
C422        H431   1.083       .  S
C423        C424   1.412       .  A
C423        S427   1.798       .  S
C424        C425   1.408       .  A
C425        C426   1.408       .  A
C425        H432   1.082       .  S
C426        S428   1.808   1_455  S
S427        H430   1.407       .  S
S428       H1821   1.406   1_655  S
H429       S1820   1.406       .  S
C433        C434   1.409       .  A
C433       C1830   1.410       .  A
C434        C435   1.387       .  A
C434        H443   1.084       .  S
C435       C1828   1.401       .  A
C435        S439   1.805       .  S
C436        C437   1.399       .  A
C436       C1827   1.401   1_455  A
C437        C438   1.389       .  A
C437        H444   1.085       .  S
C438       C1825   1.410   1_455  A
C438        S440   1.799       .  S
S439        H442   1.407       .  S
S440        H441   1.408       .  S
C445        C446   1.407       .  A
C445        C450   1.426       .  A
C446        C447   1.403       .  A
C446        H455   1.084       .  S
C447        C448   1.415       .  A
C447        S451   1.802       .  S
C448        C449   1.402       .  A
C449        C450   1.400       .  A
C449        H456   1.084   1_545  S
C450        S452   1.803       .  S
S451        H454   1.408       .  S
S452        H453   1.406       .  S
C457        C458   1.406       .  A
C457        C462   1.407       .  A
C458        C459   1.402       .  A
C458        H467   1.084       .  S
C459        C460   1.413       .  A
C459        S463   1.795       .  S
C460        C461   1.412       .  A
C461        C462   1.403       .  A
C461        H468   1.084       .  S
C462        S464   1.800       .  S
S463        H466   1.406       .  S
S464        H465   1.406       .  S
C469        C470   1.413       .  A
C469        C474   1.417       .  A
C470        C471   1.404       .  A
C470        H479   1.083       .  S
C471        C472   1.414   1_556  A
C471        S475   1.800       .  S
C472        C473   1.412       .  A
C473        C474   1.410   1_554  A
C473        H480   1.082       .  S
C474       S1172   1.809   1_545  S
S475        H478   1.407       .  S
S476       C1170   1.809       .  S
S476        H477   1.407   1_556  S
C481        C486   1.404       .  A
C481       C1178   1.393   1_545  A
C482        C483   1.388   1_554  A
C482       C1177   1.393       .  A
C482        H491   1.084       .  S
C483        C484   1.417       .  A
C483        S487   1.813       .  S
C484       C1181   1.403       .  A
C485        C486   1.391   1_556  A
C485       C1180   1.403   1_545  A
C485        H492   1.083       .  S
C486        S488   1.808       .  S
S487        H490   1.407       .  S
S488        H489   1.407       .  S
C493        C494   1.409   1_556  A
C493        C498   1.422       .  A
C494        C495   1.407       .  A
C494        H503   1.084       .  S
C495        C496   1.413       .  A
C495        S499   1.802       .  S
C496        C497   1.404       .  A
C497        C498   1.407   1_554  A
C497        H504   1.083   1_455  S
C498        S500   1.809       .  S
S499        H502   1.407       .  S
S500        H501   1.406   1_455  S
C505        C506   1.407       .  A
C505        C510   1.427       .  A
C506        C507   1.405       .  A
C506        H515   1.084       .  S
C507        C508   1.417       .  A
C507        S511   1.804       .  S
C508        C509   1.400       .  A
C509        C510   1.405       .  A
C509        H516   1.084       .  S
C510        S512   1.801       .  S
S511        H514   1.407       .  S
S512        H513   1.404       .  S
C517        C518   1.405       .  A
C517        C522   1.412       .  A
C518        C519   1.409       .  A
C518        H527   1.083       .  S
C519        C520   1.412       .  A
C519        S523   1.794       .  S
C520        C521   1.404       .  A
C521        C522   1.400       .  A
C521        H528   1.084       .  S
C522        S524   1.801       .  S
S523        H526   1.407       .  S
S524        H525   1.407       .  S
C529        C530   1.398       .  A
C529       C1230   1.416   1_545  A
C530        C531   1.395       .  A
C530        H539   1.085       .  S
C531       C1228   1.416   1_545  A
C531        S535   1.801       .  S
C532        C533   1.402       .  A
C532       C1227   1.416       .  A
C533        C534   1.405       .  A
C533        H540   1.084       .  S
C534       C1225   1.416       .  A
C534        S536   1.802       .  S
S535        H538   1.405       .  S
S536        H537   1.402       .  S
C541        C542   1.407       .  A
C541        C546   1.419       .  A
C542        C543   1.401       .  A
C542        H551   1.083       .  S
C543        C544   1.414       .  A
C543        S547   1.803       .  S
C544        C545   1.404       .  A
C545        C546   1.405       .  A
C545        H552   1.084       .  S
C546        S548   1.801       .  S
S547        H550   1.407       .  S
S548        H549   1.405       .  S
C553        C554   1.403       .  A
C553       C1254   1.409       .  A
C554        C555   1.389       .  A
C554        H563   1.084       .  S
C555       C1252   1.409       .  A
C555        S559   1.805       .  S
C556        C557   1.403   1_545  A
C556       C1251   1.409       .  A
C557        C558   1.392       .  A
C557        H564   1.084       .  S
C558       C1249   1.409       .  A
C558        S560   1.804       .  S
S559        H562   1.407       .  S
S560       H1257   1.407       .  S
H561       S1256   1.407       .  S
C565        C566   1.408   1_554  A
C565        C570   1.417       .  A
C566        C567   1.407       .  A
C566        H575   1.079       .  S
C567        C568   1.413       .  A
C567        S571   1.803       .  S
C568        C569   1.405       .  A
C569        C570   1.401   1_556  A
C569        H576   1.085       .  S
C570        S572   1.803       .  S
S571        H574   1.407       .  S
S572        H573   1.408       .  S
C577        C578   1.400       .  A
C577        C582   1.403   1_556  A
C578        C579   1.390   1_556  A
C578        H587   1.084       .  S
C579        C580   1.413       .  A
C579        S583   1.800   1_554  S
C580        C581   1.405       .  A
C581        C582   1.379       .  A
C581        H588   1.083       .  S
C582        S584   1.803       .  S
S583        H586   1.407   1_556  S
S584        H585   1.407       .  S
C589        C590   1.404       .  A
C589        C594   1.414       .  A
C590        C591   1.406       .  A
C590        H599   1.081       .  S
C591        C592   1.410       .  A
C591        S595   1.798       .  S
C592        C593   1.404       .  A
C593        C594   1.402       .  A
C593        H600   1.084       .  S
C594        S596   1.798       .  S
S595        H598   1.407       .  S
S596        H597   1.404       .  S
C601        C602   1.398       .  A
C601        C606   1.412       .  A
C602        C603   1.406       .  A
C602        H611   1.083       .  S
C603        C604   1.424       .  A
C603        S607   1.811       .  S
C604        C605   1.403       .  A
C605        C606   1.401       .  A
C605        H612   1.083       .  S
C606        S608   1.800       .  S
S607        H610   1.406       .  S
S608        H609   1.407       .  S
C613        C614   1.407   1_556  A
C613        C618   1.424       .  A
C614        C615   1.402       .  A
C614        H623   1.083       .  S
C615        C616   1.415       .  A
C615        S619   1.804       .  S
C616        C617   1.402       .  A
C617        C618   1.407   1_554  A
C617        H624   1.084       .  S
C618        S620   1.799       .  S
S619        H622   1.407       .  S
S620        H621   1.406       .  S
C625        C626   1.410       .  A
C625        C630   1.423       .  A
C626        C627   1.407       .  A
C626        H635   1.083       .  S
C627        C628   1.419       .  A
C627        S631   1.802       .  S
C628        C629   1.408       .  A
C629        C630   1.406       .  A
C629        H636   1.084       .  S
C630        S632   1.800       .  S
S631        H634   1.408       .  S
S632        H633   1.408       .  S
C637        C638   1.400       .  A
C637        C642   1.402       .  A
C638        C639   1.396       .  A
C638        H647   1.083       .  S
C639        C640   1.415       .  A
C639        S643   1.807       .  S
C640        C641   1.403       .  A
C641        C642   1.378       .  A
C641        H648   1.083       .  S
C642        S644   1.800       .  S
S643        H646   1.407       .  S
S644        H645   1.408       .  S
C649        C650   1.403       .  A
C649        C654   1.416       .  A
C650        C651   1.406       .  A
C650        H659   1.084       .  S
C651        C652   1.410       .  A
C651        S655   1.795       .  S
C652        C653   1.402       .  A
C653        C654   1.402       .  A
C653        H660   1.085       .  S
C654        S656   1.798       .  S
S655        H658   1.407       .  S
S656        H657   1.405       .  S
C661        C662   1.404       .  A
C661        C666   1.406       .  A
C662        C663   1.404       .  A
C662        H671   1.084       .  S
C663        C664   1.414       .  A
C663        S667   1.801       .  S
C664        C665   1.407       .  A
C665        C666   1.393       .  A
C665        H672   1.084       .  S
C666        S668   1.806       .  S
S667        H670   1.407       .  S
S668        H669   1.407       .  S
C673        C674   1.409       .  A
C673        C678   1.411       .  A
C674        C675   1.403       .  A
C674        H683   1.084       .  S
C675        C676   1.411       .  A
C675        S679   1.804       .  S
C676        C677   1.407       .  A
C677        C678   1.409       .  A
C677        H684   1.083       .  S
C678        S680   1.804       .  S
S679        H682   1.405       .  S
S680        H681   1.407       .  S
C685        C686   1.406       .  A
C685        C690   1.425       .  A
C686        C687   1.398       .  A
C686        H695   1.081       .  S
C687        C688   1.410       .  A
C687        S691   1.804       .  S
C688        C689   1.400       .  A
C689        C690   1.409       .  A
C689        H696   1.083       .  S
C690        S692   1.809       .  S
S691        H694   1.408       .  S
S692        H693   1.407       .  S
O697        C712   1.265       .  A
O697       Al705   1.918       .  S
C698        O708   1.266       .  A
C698        O699   1.264       .  A
C698       C1324   1.505       .  S
O699       Al701   1.917       .  S
O700        C702   1.253       .  A
O700       Al701   1.867       .  S
Al701       O709   1.873       .  S
Al701       O711   1.928       .  S
Al701       O710   1.783       .  S
C702        O715   1.259       .  A
C702       C1333   1.451       .  S
O703        C713   1.262       .  A
O703       Al705   1.913       .  S
O704        C717   1.274       .  A
O704       Al714   1.941       .  S
Al705       O718   1.892       .  S
Al705       O715   1.878       .  S
Al705       O710   1.762       .  S
O706        C713   1.258       .  A
O706       Al714   1.915       .  S
O707        C716   1.266       .  A
O707       Al714   1.941       .  S
O708       Al714   1.925       .  S
O709        C716   1.258       .  A
O710       Al714   1.785       .  S
O711        C712   1.264       .  A
C712       C1345   1.485       .  S
C713       C1381   1.498       .  S
C716       C1357   1.465       .  S
C717        O718   1.262       .  A
C717       C1372   1.477       .  S
O719        C734   1.263       .  A
O719       Al727   1.915       .  S
C720        O730   1.263       .  A
C720        O721   1.261       .  A
C720       C1264   1.487       .  S
O721       Al723   1.918       .  S
O722        C724   1.253       .  A
O722       Al723   1.863       .  S
Al723       O731   1.871       .  S
Al723       O733   1.931       .  S
Al723       O732   1.788       .  S
C724        O737   1.260       .  A
C724       C1273   1.448       .  S
O725        C735   1.261       .  A
O725       Al727   1.913       .  S
O726        C739   1.273       .  A
O726       Al736   1.934       .  S
Al727       O740   1.885       .  S
Al727       O737   1.879       .  S
Al727       O732   1.763       .  S
O728        C735   1.261       .  A
O728       Al736   1.928       .  S
O729        C738   1.270       .  A
O729       Al736   1.949       .  S
O730       Al736   1.917       .  S
O731        C738   1.260       .  A
O732       Al736   1.786       .  S
O733        C734   1.262       .  A
C734       C1285   1.485       .  S
C735       C1309   1.503       .  S
C738       C1360   1.479       .  S
C739        O740   1.262       .  A
C739       C1297   1.473       .  S
O741        C756   1.269       .  A
O741       Al749   1.937       .  S
C742        O743   1.260       .  A
C742       C1237   1.495       .  S
O744        C746   1.258       .  A
O744       Al745   1.883       .  S
Al745       O753   1.878       .  S
Al745       O755   1.912       .  S
Al745       O754   1.790       .  S
C746        O759   1.258       .  A
C746       C1252   1.457       .  S
O747        C757   1.267       .  A
O747       Al749   1.931       .  S
O748        C761   1.270       .  A
O748       Al758   1.936       .  S
Al749       O762   1.888       .  S
Al749       O759   1.884       .  S
Al749       O754   1.774       .  S
O750        C757   1.260       .  A
O750       Al758   1.915       .  S
O751        C760   1.267       .  A
O751       Al758   1.938       .  S
O752       Al758   1.914       .  S
O753        C760   1.258       .  A
O754       Al758   1.789       .  S
O755        C756   1.261       .  A
C756       C1216   1.490       .  S
C757       C1201   1.505       .  S
C760       C1225   1.471       .  S
C761        O762   1.260       .  A
C761       C1348   1.476       .  S
O763        C778   1.268       .  A
O763       Al771   1.922       .  S
C764        O765   1.264       .  A
C764       C1165   1.505       .  S
O766        C768   1.254       .  A
O766       Al767   1.863       .  S
Al767       O775   1.876       .  S
Al767       O777   1.905       .  S
Al767       O776   1.778       .  S
C768        O781   1.254       .  A
C768       C1180   1.455       .  S
O769        C779   1.263       .  A
O769       Al771   1.922       .  S
O770        C783   1.274       .  A
O770       Al780   1.943       .  S
Al771       O784   1.891       .  S
Al771       O781   1.876       .  S
Al771       O776   1.774       .  S
O772        C779   1.263       .  A
O772       Al780   1.929       .  S
O773        C782   1.266       .  A
O773       Al780   1.946       .  S
O774       Al780   1.932       .  S
O775        C782   1.255       .  A
O776       Al780   1.779       .  S
O777        C778   1.260       .  A
C778       C1300   1.491       .  S
C779       C1189   1.502       .  S
C782       C1228   1.478       .  S
C783        O784   1.262       .  A
C783       C1153   1.474       .  S
O785        C800   1.268       .  A
O785       Al793   1.923       .  S
C786       O2188   1.267   1_455  A
C786        O787   1.266       .  A
C786       C1117   1.507       .  S
O787      Al2181   1.923   1_455  S
O788        C790   1.255       .  A
O788       Al789   1.876       .  S
Al789      O2179   1.923       .  S
Al789       O797   1.877       .  S
Al789       O799   1.916       .  S
Al789       O798   1.783       .  S
C790        O803   1.255       .  A
C790       C1129   1.461       .  S
O791        C801   1.266       .  A
O791       Al793   1.926       .  S
O792        C805   1.276       .  A
O792       Al802   1.952       .  S
Al793       O806   1.884       .  S
Al793       O803   1.871       .  S
Al793       O798   1.772       .  S
O794        C801   1.257       .  A
O794       Al802   1.909       .  S
O795        C804   1.261       .  A
O795       Al802   1.934       .  S
O796       C2178   1.267       .  A
O796       Al802   1.924       .  S
O797        C804   1.256       .  A
O798       Al802   1.785       .  S
O799        C800   1.264       .  A
C800       C1369   1.491       .  S
C801       C1141   1.499       .  S
C804       C1105   1.470       .  S
C805        O806   1.260       .  A
C805       C1213   1.477       .  S
O807        C822   1.269       .  A
O807       Al815   1.927       .  S
C808       O2210   1.263       .  A
C808        O809   1.259       .  A
C808       C1084   1.499       .  S
O809      Al2203   1.912       .  S
O810        C812   1.256       .  A
O810       Al811   1.873       .  S
Al811      O2201   1.912   1_455  S
Al811       O819   1.863       .  S
Al811       O821   1.907       .  S
Al811       O820   1.782       .  S
C812        O825   1.256       .  A
C812       C1093   1.458       .  S
O813        C823   1.265       .  A
O813       Al815   1.924       .  S
O814        C827   1.270       .  A
O814       Al824   1.938       .  S
Al815       O828   1.882       .  S
Al815       O825   1.888       .  S
Al815       O820   1.778       .  S
O816        C823   1.264       .  A
O816       Al824   1.920       .  S
O817        C826   1.268       .  A
O817       Al824   1.951       .  S
O818       C2200   1.263   1_455  A
O818       Al824   1.917       .  S
O819        C826   1.255       .  A
O820       Al824   1.791       .  S
O821        C822   1.262       .  A
C822       C1156   1.497       .  S
C823       C1072   1.503       .  S
C826       C1108   1.480       .  S
C827        O828   1.259       .  A
C827       C1288   1.475       .  S
O829        C844   1.252       .  A
O829       Al837   1.847       .  S
C830        O840   1.257       .  A
C830        O831   1.278       .  A
C830       C1204   1.488       .  S
O831       Al833   1.970       .  S
O832        C834   1.253       .  A
O832       Al833   1.878       .  S
Al833       O841   1.906       .  S
Al833       O843   1.968       .  S
Al833       O842   1.779       .  S
C834        O847   1.268       .  A
C834       C1120   1.501       .  S
O835        C845   1.254       .  A
O835       Al837   1.878       .  S
O836        C849   1.266       .  A
O836       Al846   1.908       .  S
Al837       O850   1.955       .  S
Al837       O847   1.957       .  S
Al837       O842   1.778       .  S
O838        C845   1.257       .  A
O838       Al846   1.880       .  S
O839        C848   1.256       .  A
O839       Al846   1.898       .  S
O840       Al846   1.862       .  S
O841        C848   1.257       .  A
O842       Al846   1.786       .  S
O843        C844   1.274       .  A
C844       C1057   1.478       .  S
C845       C1336   1.462       .  S
C848       C1048   1.476       .  S
C849        O850   1.274       .  A
C849       C1033   1.484       .  S
O851        C866   1.252       .  A
O851       Al859   1.840       .  S
C852        O862   1.258       .  A
C852        O853   1.277       .  A
C852       C1069   1.499       .  S
O853       Al855   1.973       .  S
O854        C856   1.253       .  A
O854       Al855   1.881       .  S
Al855       O863   1.897       .  S
Al855       O865   1.972       .  S
Al855       O864   1.785       .  S
C856        O869   1.264       .  A
C856       C1168   1.503       .  S
O857        C867   1.257       .  A
O857       Al859   1.884       .  S
O858        C871   1.267       .  A
O858       Al868   1.913       .  S
Al859       O872   1.934       .  S
Al859       O869   1.943       .  S
Al859       O864   1.781       .  S
O860        C867   1.255       .  A
O860       Al868   1.871       .  S
O861        C870   1.255       .  A
O861       Al868   1.892       .  S
O862       Al868   1.859       .  S
O863        C870   1.254       .  A
O864       Al868   1.790       .  S
O865        C866   1.275       .  A
C866       C1024   1.479       .  S
C867       C1276   1.461       .  S
C870       C1045   1.475       .  S
C871        O872   1.269       .  A
C871       C1009   1.481       .  S
O873        C888   1.265       .  A
O873       Al881   1.907       .  S
C874        O884   1.262       .  A
C874       C1144   1.487       .  S
O875       Al877   1.911       .  S
O876        C878   1.264       .  A
O876       Al877   1.935       .  S
Al877       O885   1.949       .  S
Al877       O887   1.926       .  S
Al877       O886   1.784       .  S
C878        O891   1.263       .  A
C878       C1321   1.510       .  S
O879        C889   1.260       .  A
O879       Al881   1.895       .  S
O880        C893   1.261       .  A
O880       Al890   1.920       .  S
Al881       O894   1.913       .  S
Al881       O891   1.918       .  S
Al881       O886   1.769       .  S
O882        C889   1.257       .  A
O882       Al890   1.875       .  S
O883        C892   1.258       .  A
O883       Al890   1.872       .  S
O885        C892   1.268       .  A
O886       Al890   1.778       .  S
O887        C888   1.268       .  A
C888       C1036   1.475       .  S
C889       C1249   1.459       .  S
C892       C1000   1.485       .  S
C893        O894   1.267       .  A
C893        C988   1.493       .  S
O895        C910   1.257       .  A
O895       Al903   1.866       .  S
C896        O906   1.251       .  A
C896       C1312   1.486       .  S
O897       Al899   1.961       .  S
O898        C900   1.252       .  A
O898       Al899   1.878       .  S
Al899       O907   1.903       .  S
Al899       O909   1.974       .  S
Al899       O908   1.788       .  S
C900        O913   1.267       .  A
C900       C1081   1.491       .  S
O901        C911   1.258       .  A
O901       Al903   1.876       .  S
O902        C915   1.260       .  A
O902       Al912   1.904       .  S
Al903       O916   1.934       .  S
Al903       O913   1.954       .  S
Al903       O908   1.782       .  S
O904        C911   1.257       .  A
O904       Al912   1.873       .  S
O905        C914   1.257       .  A
O905       Al912   1.893       .  S
O907        C914   1.259       .  A
O908       Al912   1.788       .  S
O909        C910   1.275       .  A
C910        C976   1.482       .  S
C911       C1177   1.437       .  S
C914        C997   1.465       .  S
C915        O916   1.266       .  A
C915       C1021   1.480       .  S
O917        C932   1.266       .  A
O917       Al925   1.909       .  S
C918        O928   1.262       .  A
C918       O2311   1.263   1_455  A
C918       C1192   1.490       .  S
O919       C2310   1.263       .  A
O919       Al921   1.917       .  S
O920        C922   1.259       .  A
O920       Al921   1.912       .  S
Al921       O929   1.942       .  S
Al921       O931   1.926       .  S
Al921       O930   1.787       .  S
C922        O935   1.261       .  A
C922       C1261   1.495       .  S
O923        C933   1.262       .  A
O923       Al925   1.899       .  S
O924        C937   1.262       .  A
O924       Al934   1.931       .  S
Al925       O938   1.921       .  S
Al925       O935   1.921       .  S
Al925       O930   1.771       .  S
O926        C933   1.256       .  A
O926       Al934   1.870       .  S
O927        C936   1.260       .  A
O927       Al934   1.881       .  S
O928      Al2326   1.922   1_455  S
O929        C936   1.268       .  A
O930       Al934   1.789       .  S
O931        C932   1.269       .  A
C932       C1012   1.479       .  S
C933       C1096   1.460       .  S
Al934      O2320   1.922       .  S
C936        C961   1.470       .  S
C937        O938   1.265       .  A
C937        C973   1.493       .  S
O939        C954   1.257       .  A
O939       Al947   1.852       .  S
C940        O950   1.252       .  A
C940       O2333   1.271       .  A
C940       C1384   1.475       .  S
O941       C2332   1.271   1_455  A
O941       Al943   1.954       .  S
O942        C944   1.252       .  A
O942       Al943   1.887       .  S
Al943       O951   1.908       .  S
Al943       O953   1.969       .  S
Al943       O952   1.789       .  S
C944        O957   1.260       .  A
C944       C1240   1.486       .  S
O945        C955   1.254       .  A
O945       Al947   1.868       .  S
O946        C959   1.262       .  A
O946       Al956   1.910       .  S
Al947       O960   1.934       .  S
Al947       O957   1.928       .  S
Al947       O952   1.782       .  S
O948        C955   1.260       .  A
O948       Al956   1.892       .  S
O949        C958   1.256       .  A
O949       Al956   1.890       .  S
O950      Al2348   1.842       .  S
O951        C958   1.259       .  A
O952       Al956   1.790       .  S
O953        C954   1.275       .  A
C954        C985   1.482       .  S
C955       C1132   1.441       .  S
Al956      O2342   1.842   1_455  S
C958        C964   1.479       .  S
C959        O960   1.265       .  A
C959       C1060   1.479       .  S
C961        C962   1.403       .  A
C961       C2358   1.408       .  A
C962       C2355   1.401       .  A
C962        H971   1.084       .  S
C963       C2354   1.401       .  A
C963        C964   1.413       .  A
C963       S2359   1.800       .  S
C964        C965   1.407   1_455  A
C965        C966   1.399       .  A
C965        H972   1.084       .  S
C966       C2353   1.408       .  A
C966        S968   1.800       .  S
S967       C2355   1.800       .  S
S967       H2362   1.403       .  S
S968        H969   1.404       .  S
H970       S2359   1.403       .  S
C973        C974   1.400       .  A
C973        C978   1.417       .  A
C974        C975   1.400       .  A
C974        H983   1.074       .  S
C975        C976   1.412       .  A
C975        S979   1.800       .  S
C976        C977   1.403       .  A
C977        C978   1.410       .  A
C977        H984   1.083       .  S
C978        S980   1.801       .  S
S979        H982   1.406       .  S
S980        H981   1.407       .  S
C985        C986   1.403       .  A
C985        C990   1.412       .  A
C986        C987   1.413       .  A
C986        H995   1.083       .  S
C987        C988   1.423       .  A
C987        S991   1.805       .  S
C988        C989   1.397       .  A
C989        C990   1.391       .  A
C989        H996   1.073       .  S
C990        S992   1.799       .  S
S991        H994   1.407       .  S
S992        H993   1.401       .  S
C997       C1002   1.409       .  A
C998        C999   1.405       .  A
C998       H1007   1.084       .  S
C999       C1000   1.416       .  A
C999       S1003   1.800       .  S
C1001      C1002   1.393       .  A
C1001      H1008   1.084       .  S
C1002      S1004   1.808       .  S
S1003      H1006   1.407       .  S
S1004      H1005   1.402       .  S
C1009      C1010   1.397       .  A
C1009      C1014   1.417       .  A
C1010      C1011   1.396       .  A
C1010      H1019   1.079       .  S
C1011      C1012   1.408       .  A
C1011      S1015   1.791       .  S
C1012      C1013   1.402       .  A
C1013      C1014   1.411       .  A
C1013      H1020   1.083       .  S
C1014      S1016   1.803       .  S
S1015      H1018   1.406       .  S
S1016      H1017   1.407       .  S
C1021      C1022   1.397       .  A
C1021      C1026   1.418       .  A
C1022      C1023   1.401       .  A
C1022      H1031   1.084       .  S
C1023      C1024   1.419       .  A
C1023      S1027   1.803       .  S
C1024      C1025   1.400       .  A
C1025      C1026   1.405       .  A
C1025      H1032   1.084       .  S
C1026      S1028   1.799       .  S
S1027      H1030   1.404       .  S
S1028      H1029   1.405       .  S
C1033      C1034   1.402       .  A
C1033      C1038   1.418       .  A
C1034      C1035   1.404       .  A
C1034      H1043   1.083       .  S
C1035      C1036   1.409       .  A
C1035      S1039   1.797       .  S
C1036      C1037   1.398       .  A
C1037      C1038   1.402       .  A
C1037      H1044   1.084       .  S
C1038      S1040   1.797       .  S
S1039      H1042   1.407       .  S
S1040      H1041   1.406       .  S
C1045      C1046   1.404       .  A
C1045      C1050   1.412       .  A
C1046      C1047   1.397       .  A
C1046      H1055   1.084       .  S
C1047      C1048   1.410       .  A
C1047      S1051   1.795       .  S
C1048      C1049   1.404       .  A
C1049      C1050   1.399       .  A
C1049      H1056   1.084       .  S
C1050      S1052   1.799       .  S
S1051      H1054   1.405       .  S
S1052      H1053   1.406       .  S
C1057      C1058   1.402       .  A
C1057      C1062   1.421       .  A
C1058      C1059   1.404       .  A
C1058      H1067   1.084       .  S
C1059      C1060   1.415       .  A
C1059      S1063   1.799       .  S
C1060      C1061   1.395       .  A
C1061      C1062   1.399       .  A
C1061      H1068   1.079       .  S
C1062      S1064   1.805       .  S
S1063      H1066   1.405   1_455  S
S1064      H1065   1.396       .  S
C1069      C1070   1.410       .  A
C1069      C1074   1.414       .  A
C1070      C1071   1.402       .  A
C1070      H1079   1.084       .  S
C1071      C1072   1.416   1_554  A
C1071      S1075   1.799       .  S
C1072      C1073   1.413       .  A
C1073      C1074   1.408   1_556  A
C1073      H1080   1.083       .  S
C1074      S1076   1.799       .  S
S1075      H1078   1.408   1_554  S
S1076      H1077   1.406       .  S
C1081      C1082   1.402   1_554  A
C1081      C1086   1.417       .  A
C1082      C1083   1.407       .  A
C1082      H1091   1.084       .  S
C1083      C1084   1.422       .  A
C1083      S1087   1.800       .  S
C1084      C1085   1.406       .  A
C1085      C1086   1.401   1_556  A
C1085      H1092   1.084       .  S
C1086      S1088   1.800       .  S
S1087      H1090   1.407       .  S
S1088      H1089   1.408       .  S
C1093      C1094   1.403   1_455  A
C1093      C2490   1.410   1_556  A
C1094      C1095   1.389       .  A
C1094      H1103   1.084       .  S
C1095      C2488   1.407   1_556  A
C1095      S1099   1.800       .  S
C1096      C2487   1.407   1_554  A
C1096      C1097   1.402       .  A
C1097      C1098   1.389       .  A
C1097      H1104   1.084       .  S
C1098      C2485   1.410   1_554  A
C1098      S1100   1.801       .  S
S1099      H1102   1.405       .  S
S1100      H1101   1.407       .  S
C1105      C1106   1.395       .  A
C1105      C2502   1.416       .  A
C1106      C1107   1.390       .  A
C1106      H1115   1.085       .  S
C1107      C2500   1.417       .  A
C1107      S1111   1.802       .  S
C1108      C2499   1.417   1_455  A
C1108      C1109   1.405       .  A
C1109      C1110   1.407       .  A
C1109      H1116   1.083       .  S
C1110      C2497   1.416   1_455  A
C1110      S1112   1.803       .  S
S1111      H2506   1.402       .  S
S1112      H1113   1.404       .  S
H1114      S2503   1.402       .  S
C1117      C1118   1.413       .  A
C1117      C1122   1.420       .  A
C1118      C1119   1.408       .  A
C1118      H1127   1.083       .  S
C1119      C1120   1.412       .  A
C1119      S1123   1.798       .  S
C1120      C1121   1.408       .  A
C1121      C1122   1.408       .  A
C1121      H1128   1.082       .  S
C1122      S1124   1.808   1_455  S
S1123      H1126   1.407       .  S
S1124      H2517   1.406   1_655  S
H1125      S2516   1.406       .  S
C1129      C1130   1.409       .  A
C1129      C2526   1.410       .  A
C1130      C1131   1.387       .  A
C1130      H1139   1.084       .  S
C1131      C2524   1.401       .  A
C1131      S1135   1.805       .  S
C1132      C2523   1.401   1_455  A
C1132      C1133   1.399       .  A
C1133      C1134   1.389       .  A
C1133      H1140   1.085       .  S
C1134      C2521   1.410   1_455  A
C1134      S1136   1.799       .  S
S1135      H1138   1.407       .  S
S1136      H1137   1.408       .  S
C1141      C1142   1.407       .  A
C1141      C1146   1.426       .  A
C1142      C1143   1.403       .  A
C1142      H1151   1.084       .  S
C1143      C1144   1.415       .  A
C1143      S1147   1.802       .  S
C1144      C1145   1.402       .  A
C1145      C1146   1.400       .  A
C1145      H1152   1.084       .  S
C1146      S1148   1.803       .  S
S1147      H1150   1.408       .  S
S1148      H1149   1.406       .  S
C1153      C1154   1.406       .  A
C1153      C1158   1.407       .  A
C1154      C1155   1.402       .  A
C1154      H1163   1.084       .  S
C1155      C1156   1.413       .  A
C1155      S1159   1.795       .  S
C1156      C1157   1.412       .  A
C1157      C1158   1.403       .  A
C1157      H1164   1.084       .  S
C1158      S1160   1.800       .  S
S1159      H1162   1.406       .  S
S1160      H1161   1.406       .  S
C1165      C1166   1.413       .  A
C1165      C1170   1.417       .  A
C1166      C1167   1.404       .  A
C1166      H1175   1.083       .  S
C1167      C1168   1.414   1_556  A
C1167      S1171   1.800       .  S
C1168      C1169   1.412       .  A
C1169      C1170   1.410   1_554  A
C1169      H1176   1.082       .  S
S1171      H1174   1.407       .  S
S1172      H1173   1.407   1_566  S
C1177      C1182   1.404       .  A
C1178      C1179   1.388   1_554  A
C1178      H1187   1.084       .  S
C1179      C1180   1.417       .  A
C1179      S1183   1.813       .  S
C1181      C1182   1.391   1_556  A
C1181      H1188   1.083       .  S
C1182      S1184   1.808       .  S
S1183      H1186   1.407       .  S
S1184      H1185   1.407       .  S
C1189      C1190   1.409   1_556  A
C1189      C1194   1.422       .  A
C1190      C1191   1.407       .  A
C1190      H1199   1.084       .  S
C1191      C1192   1.413       .  A
C1191      S1195   1.802       .  S
C1192      C1193   1.404       .  A
C1193      C1194   1.407   1_554  A
C1193      H1200   1.083   1_455  S
C1194      S1196   1.809       .  S
S1195      H1198   1.407       .  S
S1196      H1197   1.406   1_455  S
C1201      C1202   1.407       .  A
C1201      C1206   1.427       .  A
C1202      C1203   1.405       .  A
C1202      H1211   1.084       .  S
C1203      C1204   1.417       .  A
C1203      S1207   1.804       .  S
C1204      C1205   1.400       .  A
C1205      C1206   1.405       .  A
C1205      H1212   1.084       .  S
C1206      S1208   1.801       .  S
S1207      H1210   1.407       .  S
S1208      H1209   1.404       .  S
C1213      C1214   1.405       .  A
C1213      C1218   1.412       .  A
C1214      C1215   1.409       .  A
C1214      H1223   1.083       .  S
C1215      C1216   1.412       .  A
C1215      S1219   1.794       .  S
C1216      C1217   1.405       .  A
C1217      C1218   1.400       .  A
C1217      H1224   1.084       .  S
C1218      S1220   1.801       .  S
S1219      H1222   1.407       .  S
S1220      H1221   1.407       .  S
C1225      C1226   1.398       .  A
C1226      C1227   1.395       .  A
C1226      H1235   1.085       .  S
C1227      S1231   1.801       .  S
C1228      C1229   1.402       .  A
C1229      C1230   1.405       .  A
C1229      H1236   1.084       .  S
C1230      S1232   1.802       .  S
S1231      H1234   1.405       .  S
S1232      H1233   1.402       .  S
C1237      C1238   1.407       .  A
C1237      C1242   1.419       .  A
C1238      C1239   1.401       .  A
C1238      H1247   1.083   1_565  S
C1239      C1240   1.414       .  A
C1239      S1243   1.803       .  S
C1240      C1241   1.404       .  A
C1241      C1242   1.405       .  A
C1241      H1248   1.084       .  S
C1242      S1244   1.801       .  S
S1243      H1246   1.407       .  S
S1244      H1245   1.405       .  S
C1249      C1250   1.403   1_565  A
C1250      C1251   1.389       .  A
C1250      H1259   1.084       .  S
C1251      S1255   1.805       .  S
C1252      C1253   1.403       .  A
C1253      C1254   1.392       .  A
C1253      H1260   1.084       .  S
C1254      S1256   1.804       .  S
S1255      H1258   1.407       .  S
C1261      C1262   1.408   1_554  A
C1261      C1266   1.417       .  A
C1262      C1263   1.407       .  A
C1262      H1271   1.079       .  S
C1263      C1264   1.413       .  A
C1263      S1267   1.803       .  S
C1264      C1265   1.405       .  A
C1265      C1266   1.401   1_556  A
C1265      H1272   1.085       .  S
C1266      S1268   1.803       .  S
S1267      H1270   1.407       .  S
S1268      H1269   1.408       .  S
C1273      C1274   1.400       .  A
C1273      C1278   1.403   1_556  A
C1274      C1275   1.390   1_556  A
C1274      H1283   1.084       .  S
C1275      C1276   1.413       .  A
C1275      S1279   1.800   1_554  S
C1276      C1277   1.405       .  A
C1277      C1278   1.379       .  A
C1277      H1284   1.083       .  S
C1278      S1280   1.803       .  S
S1279      H1282   1.407   1_556  S
S1280      H1281   1.407       .  S
C1285      C1286   1.404       .  A
C1285      C1290   1.414       .  A
C1286      C1287   1.406       .  A
C1286      H1295   1.081       .  S
C1287      C1288   1.410       .  A
C1287      S1291   1.798       .  S
C1288      C1289   1.403       .  A
C1289      C1290   1.402       .  A
C1289      H1296   1.084       .  S
C1290      S1292   1.798       .  S
S1291      H1294   1.407       .  S
S1292      H1293   1.405       .  S
C1297      C1298   1.398       .  A
C1297      C1302   1.412       .  A
C1298      C1299   1.406       .  A
C1298      H1307   1.083       .  S
C1299      C1300   1.424       .  A
C1299      S1303   1.811       .  S
C1300      C1301   1.403       .  A
C1301      C1302   1.401       .  A
C1301      H1308   1.083       .  S
C1302      S1304   1.800       .  S
S1303      H1306   1.406       .  S
S1304      H1305   1.407       .  S
C1309      C1310   1.407   1_556  A
C1309      C1314   1.424       .  A
C1310      C1311   1.403       .  A
C1310      H1319   1.083       .  S
C1311      C1312   1.415       .  A
C1311      S1315   1.804       .  S
C1312      C1313   1.402       .  A
C1313      C1314   1.407   1_554  A
C1313      H1320   1.084       .  S
C1314      S1316   1.799       .  S
S1315      H1318   1.407       .  S
S1316      H1317   1.406       .  S
C1321      C1322   1.410       .  A
C1321      C1326   1.423       .  A
C1322      C1323   1.407       .  A
C1322      H1331   1.083       .  S
C1323      C1324   1.419       .  A
C1323      S1327   1.801       .  S
C1324      C1325   1.408       .  A
C1325      C1326   1.406       .  A
C1325      H1332   1.084       .  S
C1326      S1328   1.801       .  S
S1327      H1330   1.408       .  S
S1328      H1329   1.408       .  S
C1333      C1334   1.400       .  A
C1333      C1338   1.402       .  A
C1334      C1335   1.396       .  A
C1334      H1343   1.083       .  S
C1335      C1336   1.415       .  A
C1335      S1339   1.807       .  S
C1336      C1337   1.403       .  A
C1337      C1338   1.378       .  A
C1337      H1344   1.083       .  S
C1338      S1340   1.800       .  S
S1339      H1342   1.407       .  S
S1340      H1341   1.408       .  S
C1345      C1346   1.403       .  A
C1345      C1350   1.415       .  A
C1346      C1347   1.406       .  A
C1346      H1355   1.084       .  S
C1347      C1348   1.410       .  A
C1347      S1351   1.796       .  S
C1348      C1349   1.402       .  A
C1349      C1350   1.402       .  A
C1349      H1356   1.084       .  S
C1350      S1352   1.798       .  S
S1351      H1354   1.407       .  S
S1352      H1353   1.405       .  S
C1357      C1358   1.404       .  A
C1357      C1362   1.406       .  A
C1358      C1359   1.404       .  A
C1358      H1367   1.084       .  S
C1359      C1360   1.414       .  A
C1359      S1363   1.801       .  S
C1360      C1361   1.407       .  A
C1361      C1362   1.393       .  A
C1361      H1368   1.084       .  S
C1362      S1364   1.806       .  S
S1363      H1366   1.407       .  S
S1364      H1365   1.407       .  S
C1369      C1370   1.408       .  A
C1369      C1374   1.411       .  A
C1370      C1371   1.403       .  A
C1370      H1379   1.084       .  S
C1371      C1372   1.411       .  A
C1371      S1375   1.804       .  S
C1372      C1373   1.407       .  A
C1373      C1374   1.409       .  A
C1373      H1380   1.084       .  S
C1374      S1376   1.804       .  S
S1375      H1378   1.405       .  S
S1376      H1377   1.407       .  S
C1381      C1382   1.406       .  A
C1381      C1386   1.425       .  A
C1382      C1383   1.398       .  A
C1382      H1391   1.081       .  S
C1383      C1384   1.410       .  A
C1383      S1387   1.804       .  S
C1384      C1385   1.400       .  A
C1385      C1386   1.409       .  A
C1385      H1392   1.083       .  S
C1386      S1388   1.809       .  S
S1387      H1390   1.408       .  S
S1388      H1389   1.407       .  S
O1393      C1408   1.265       .  A
O1393     Al1401   1.918       .  S
C1394      O1404   1.266       .  A
C1394      O1395   1.264       .  A
C1394      C2020   1.505       .  S
O1395     Al1397   1.917       .  S
O1396      C1398   1.253       .  A
O1396     Al1397   1.867       .  S
Al1397     O1405   1.873       .  S
Al1397     O1407   1.928       .  S
Al1397     O1406   1.783       .  S
C1398      O1411   1.259       .  A
C1398      C2029   1.451       .  S
O1399      C1409   1.262       .  A
O1399     Al1401   1.913       .  S
O1400      C1413   1.274       .  A
O1400     Al1410   1.941       .  S
Al1401     O1414   1.892       .  S
Al1401     O1411   1.878       .  S
Al1401     O1406   1.762       .  S
O1402      C1409   1.258       .  A
O1402     Al1410   1.915       .  S
O1403      C1412   1.266       .  A
O1403     Al1410   1.941       .  S
O1404     Al1410   1.925       .  S
O1405      C1412   1.258       .  A
O1406     Al1410   1.785       .  S
O1407      C1408   1.264       .  A
C1408      C2041   1.485       .  S
C1409      C2077   1.498       .  S
C1412      C2053   1.465       .  S
C1413      O1414   1.262       .  A
C1413      C2068   1.477       .  S
O1415      C1430   1.263       .  A
O1415     Al1423   1.915       .  S
C1416      O1426   1.263       .  A
C1416      O1417   1.261       .  A
C1416      C1960   1.487       .  S
O1417     Al1419   1.918       .  S
O1418      C1420   1.253       .  A
O1418     Al1419   1.863       .  S
Al1419     O1427   1.871       .  S
Al1419     O1429   1.931       .  S
Al1419     O1428   1.788       .  S
C1420      O1433   1.260       .  A
C1420      C1969   1.448       .  S
O1421      C1431   1.261       .  A
O1421     Al1423   1.913       .  S
O1422      C1435   1.273       .  A
O1422     Al1432   1.934       .  S
Al1423     O1436   1.885       .  S
Al1423     O1433   1.879       .  S
Al1423     O1428   1.763       .  S
O1424      C1431   1.261       .  A
O1424     Al1432   1.928       .  S
O1425      C1434   1.270       .  A
O1425     Al1432   1.949       .  S
O1426     Al1432   1.917       .  S
O1427      C1434   1.260       .  A
O1428     Al1432   1.786       .  S
O1429      C1430   1.262       .  A
C1430      C1981   1.485       .  S
C1431      C2005   1.503       .  S
C1434      C2056   1.479       .  S
C1435      O1436   1.262       .  A
C1435      C1993   1.473       .  S
O1437      C1452   1.269       .  A
O1437     Al1445   1.938       .  S
C1438      O2144   1.262       .  A
C1438      O1439   1.260       .  A
C1438      C1933   1.495       .  S
O1439     Al2137   1.913       .  S
O1440      C1442   1.258   1_565  A
O1440     Al1441   1.883   1_565  S
Al1441     O2135   1.913   1_545  S
Al1441     O1449   1.877       .  S
Al1441     O1451   1.911       .  S
Al1441     O1450   1.790       .  S
C1442      O1455   1.258       .  A
C1442      C1948   1.457       .  S
O1443      C1453   1.267       .  A
O1443     Al1445   1.932       .  S
O1444      C1457   1.270       .  A
O1444     Al1454   1.936       .  S
Al1445     O1458   1.888       .  S
Al1445     O1455   1.884       .  S
Al1445     O1450   1.774       .  S
O1446      C1453   1.260       .  A
O1446     Al1454   1.915       .  S
O1447      C1456   1.267       .  A
O1447     Al1454   1.938       .  S
O1448      C2134   1.262   1_545  A
O1448     Al1454   1.914       .  S
O1449      C1456   1.258       .  A
O1450     Al1454   1.789       .  S
O1451      C1452   1.261       .  A
C1452      C1912   1.490       .  S
C1453      C1897   1.505       .  S
C1456      C1921   1.471       .  S
C1457      O1458   1.260       .  A
C1457      C2044   1.476       .  S
O1459      C1474   1.268       .  A
O1459     Al1467   1.922       .  S
C1460      O2166   1.269   1_545  A
C1460      O1461   1.264       .  A
C1460      C1861   1.506       .  S
O1461     Al2159   1.914   1_545  S
O1462      C1464   1.254       .  A
O1462     Al1463   1.864       .  S
Al1463     O2157   1.914       .  S
Al1463     O1471   1.876       .  S
Al1463     O1473   1.905       .  S
Al1463     O1472   1.777       .  S
C1464      O1477   1.254       .  A
C1464      C1876   1.455       .  S
O1465      C1475   1.264       .  A
O1465     Al1467   1.922       .  S
O1466      C1479   1.274       .  A
O1466     Al1476   1.943       .  S
Al1467     O1480   1.891       .  S
Al1467     O1477   1.877       .  S
Al1467     O1472   1.774       .  S
O1468      C1475   1.263       .  A
O1468     Al1476   1.929       .  S
O1469      C1478   1.266       .  A
O1469     Al1476   1.947       .  S
O1470      C2156   1.269       .  A
O1470     Al1476   1.932       .  S
O1471      C1478   1.255       .  A
O1472     Al1476   1.779       .  S
O1473      C1474   1.260       .  A
C1474      C1996   1.491       .  S
C1475      C1885   1.502       .  S
C1478      C1924   1.479       .  S
C1479      O1480   1.262       .  A
C1479      C1849   1.474       .  S
O1481      C1496   1.268       .  A
O1481     Al1489   1.923       .  S
C1482      O1483   1.266       .  A
C1482      C1813   1.507       .  S
O1484      C1486   1.255   1_455  A
O1484     Al1485   1.875   1_455  S
Al1485     O1493   1.876       .  S
Al1485     O1495   1.916       .  S
Al1485     O1494   1.783       .  S
C1486      O1499   1.255       .  A
C1486      C1825   1.461       .  S
O1487      C1497   1.266       .  A
O1487     Al1489   1.926       .  S
O1488      C1501   1.276       .  A
O1488     Al1498   1.952       .  S
Al1489     O1502   1.883       .  S
Al1489     O1499   1.871       .  S
Al1489     O1494   1.773       .  S
O1490      C1497   1.257       .  A
O1490     Al1498   1.909       .  S
O1491      C1500   1.261       .  A
O1491     Al1498   1.933       .  S
O1492     Al1498   1.924       .  S
O1493      C1500   1.256       .  A
O1494     Al1498   1.785       .  S
O1495      C1496   1.264       .  A
C1496      C2065   1.492       .  S
C1497      C1837   1.499       .  S
C1500      C1801   1.469       .  S
C1501      O1502   1.260       .  A
C1501      C1909   1.477       .  S
O1503      C1518   1.269       .  A
O1503     Al1511   1.927       .  S
C1504      O1505   1.259       .  A
C1504      C1780   1.499       .  S
O1506      C1508   1.256       .  A
O1506     Al1507   1.873       .  S
Al1507     O1515   1.863       .  S
Al1507     O1517   1.907       .  S
Al1507     O1516   1.782       .  S
C1508      O1521   1.256       .  A
C1508      C1789   1.458       .  S
O1509      C1519   1.265       .  A
O1509     Al1511   1.924       .  S
O1510      C1523   1.270       .  A
O1510     Al1520   1.938       .  S
Al1511     O1524   1.882       .  S
Al1511     O1521   1.888       .  S
Al1511     O1516   1.778       .  S
O1512      C1519   1.264       .  A
O1512     Al1520   1.920       .  S
O1513      C1522   1.268       .  A
O1513     Al1520   1.951       .  S
O1514     Al1520   1.917       .  S
O1515      C1522   1.255       .  A
O1516     Al1520   1.791       .  S
O1517      C1518   1.262       .  A
C1518      C1852   1.497       .  S
C1519      C1768   1.503       .  S
C1522      C1804   1.480       .  S
C1523      O1524   1.259       .  A
C1523      C1984   1.475       .  S
O1525      C1540   1.252       .  A
O1525     Al1533   1.847       .  S
C1526      O1536   1.257       .  A
C1526      O1527   1.278       .  A
C1526      C1900   1.488       .  S
O1527     Al1529   1.971       .  S
O1528      C1530   1.253       .  A
O1528     Al1529   1.878       .  S
Al1529     O1537   1.906       .  S
Al1529     O1539   1.968       .  S
Al1529     O1538   1.780       .  S
C1530      O1543   1.268       .  A
C1530      C1816   1.501       .  S
O1531      C1541   1.254       .  A
O1531     Al1533   1.878       .  S
O1532      C1545   1.266       .  A
O1532     Al1542   1.908       .  S
Al1533     O1546   1.955       .  S
Al1533     O1543   1.957       .  S
Al1533     O1538   1.779       .  S
O1534      C1541   1.257       .  A
O1534     Al1542   1.880       .  S
O1535      C1544   1.255       .  A
O1535     Al1542   1.898       .  S
O1536     Al1542   1.863       .  S
O1537      C1544   1.257       .  A
O1538     Al1542   1.786       .  S
O1539      C1540   1.274       .  A
C1540      C1753   1.478       .  S
C1541      C2032   1.462       .  S
C1544      C1744   1.476       .  S
C1545      O1546   1.274       .  A
C1545      C1729   1.484       .  S
O1547      C1562   1.253       .  A
O1547     Al1555   1.840       .  S
C1548      O1558   1.258       .  A
C1548      O1549   1.277       .  A
C1548      C1765   1.499       .  S
O1549     Al1551   1.973       .  S
O1550      C1552   1.253       .  A
O1550     Al1551   1.880       .  S
Al1551     O1559   1.897       .  S
Al1551     O1561   1.971       .  S
Al1551     O1560   1.786       .  S
C1552      O1565   1.264       .  A
C1552      C1864   1.503       .  S
O1553      C1563   1.257       .  A
O1553     Al1555   1.884       .  S
O1554      C1567   1.267       .  A
O1554     Al1564   1.913       .  S
Al1555     O1568   1.935       .  S
Al1555     O1565   1.943       .  S
Al1555     O1560   1.781       .  S
O1556      C1563   1.255       .  A
O1556     Al1564   1.871       .  S
O1557      C1566   1.254       .  A
O1557     Al1564   1.892       .  S
O1558     Al1564   1.859       .  S
O1559      C1566   1.254       .  A
O1560     Al1564   1.790       .  S
O1561      C1562   1.275       .  A
C1562      C1720   1.479       .  S
C1563      C1972   1.461       .  S
C1566      C1741   1.475       .  S
C1567      O1568   1.269       .  A
C1567      C1705   1.481       .  S
O1569      C1584   1.265       .  A
O1569     Al1577   1.907       .  S
C1570      O1580   1.262   1_565  A
C1570      O2267   1.265       .  A
C1570      C1840   1.487   1_565  S
O1571      C2266   1.264       .  A
O1571     Al1573   1.911       .  S
O1572      C1574   1.264       .  A
O1572     Al1573   1.936       .  S
Al1573     O1581   1.949       .  S
Al1573     O1583   1.925       .  S
Al1573     O1582   1.784       .  S
C1574      O1587   1.263       .  A
C1574      C2017   1.510       .  S
O1575      C1585   1.260       .  A
O1575     Al1577   1.895       .  S
O1576      C1589   1.261       .  A
O1576     Al1586   1.921       .  S
Al1577     O1590   1.913       .  S
Al1577     O1587   1.918       .  S
Al1577     O1582   1.768       .  S
O1578      C1585   1.257       .  A
O1578     Al1586   1.875       .  S
O1579      C1588   1.258       .  A
O1579     Al1586   1.871       .  S
O1580     Al2282   1.916   1_545  S
O1581      C1588   1.268       .  A
O1582     Al1586   1.778       .  S
O1583      C1584   1.268       .  A
C1584      C1732   1.475       .  S
C1585      C1945   1.459       .  S
Al1586     O2276   1.915       .  S
C1588      C1696   1.485       .  S
C1589      O1590   1.267       .  A
C1589      C1684   1.493       .  S
O1591      C1606   1.257       .  A
O1591     Al1599   1.865       .  S
C1592      O1602   1.251       .  A
C1592      O2289   1.272       .  A
C1592      C2008   1.486       .  S
O1593      C2288   1.272   1_545  A
O1593     Al1595   1.961       .  S
O1594      C1596   1.252       .  A
O1594     Al1595   1.878       .  S
Al1595     O1603   1.902       .  S
Al1595     O1605   1.974       .  S
Al1595     O1604   1.787       .  S
C1596      O1609   1.267       .  A
C1596      C1777   1.491       .  S
O1597      C1607   1.258       .  A
O1597     Al1599   1.876       .  S
O1598      C1611   1.260       .  A
O1598     Al1608   1.904       .  S
Al1599     O1612   1.934       .  S
Al1599     O1609   1.954       .  S
Al1599     O1604   1.782       .  S
O1600      C1607   1.257       .  A
O1600     Al1608   1.874       .  S
O1601      C1610   1.257       .  A
O1601     Al1608   1.894       .  S
O1602     Al2304   1.854       .  S
O1603      C1610   1.259       .  A
O1604     Al1608   1.788       .  S
O1605      C1606   1.275       .  A
C1606      C1672   1.482       .  S
C1607      C1873   1.437       .  S
Al1608     O2298   1.854   1_545  S
C1610      C1693   1.465       .  S
C1611      O1612   1.266       .  A
C1611      C1717   1.480       .  S
O1613      C1628   1.266       .  A
O1613     Al1621   1.909       .  S
C1614      O1624   1.262       .  A
C1614      C1888   1.491       .  S
O1615     Al1617   1.918       .  S
O1616      C1618   1.259       .  A
O1616     Al1617   1.912       .  S
Al1617     O1625   1.941       .  S
Al1617     O1627   1.926       .  S
Al1617     O1626   1.787       .  S
C1618      O1631   1.261       .  A
C1618      C1957   1.495       .  S
O1619      C1629   1.262       .  A
O1619     Al1621   1.899       .  S
O1620      C1633   1.262       .  A
O1620     Al1630   1.931       .  S
Al1621     O1634   1.921       .  S
Al1621     O1631   1.921       .  S
Al1621     O1626   1.771       .  S
O1622      C1629   1.256       .  A
O1622     Al1630   1.870       .  S
O1623      C1632   1.260       .  A
O1623     Al1630   1.881       .  S
O1625      C1632   1.268       .  A
O1626     Al1630   1.789       .  S
O1627      C1628   1.269       .  A
C1628      C1708   1.479       .  S
C1629      C1792   1.460       .  S
C1632      C1657   1.470       .  S
C1633      O1634   1.265       .  A
C1633      C1669   1.493       .  S
O1635      C1650   1.257       .  A
O1635     Al1643   1.852       .  S
C1636      O1646   1.252       .  A
C1636      C2080   1.475       .  S
O1637     Al1639   1.954       .  S
O1638      C1640   1.252       .  A
O1638     Al1639   1.887       .  S
Al1639     O1647   1.908       .  S
Al1639     O1649   1.969       .  S
Al1639     O1648   1.789       .  S
C1640      O1653   1.260       .  A
C1640      C1936   1.486       .  S
O1641      C1651   1.254       .  A
O1641     Al1643   1.868       .  S
O1642      C1655   1.262       .  A
O1642     Al1652   1.910       .  S
Al1643     O1656   1.935       .  S
Al1643     O1653   1.928       .  S
Al1643     O1648   1.782       .  S
O1644      C1651   1.260       .  A
O1644     Al1652   1.892       .  S
O1645      C1654   1.256       .  A
O1645     Al1652   1.890       .  S
O1647      C1654   1.259       .  A
O1648     Al1652   1.791       .  S
O1649      C1650   1.275       .  A
C1650      C1681   1.482       .  S
C1651      C1828   1.441       .  S
C1654      C1660   1.479       .  S
C1655      O1656   1.266       .  A
C1655      C1756   1.479       .  S
C1657      C1658   1.403   1_655  A
C1658      H1667   1.084       .  S
C1659      C1660   1.413       .  A
C1660      C1661   1.407       .  A
C1661      C1662   1.399       .  A
C1661      H1668   1.084       .  S
C1662      S1664   1.800       .  S
S1664      H1665   1.404       .  S
C1669      C1670   1.400       .  A
C1669      C1674   1.417       .  A
C1670      C1671   1.400       .  A
C1670      H1679   1.074       .  S
C1671      C1672   1.412       .  A
C1671      S1675   1.800       .  S
C1672      C1673   1.403       .  A
C1673      C1674   1.410       .  A
C1673      H1680   1.083       .  S
C1674      S1676   1.801       .  S
S1675      H1678   1.406       .  S
S1676      H1677   1.407   1_655  S
C1681      C1682   1.403       .  A
C1681      C1686   1.412       .  A
C1682      C1683   1.413       .  A
C1682      H1691   1.083       .  S
C1683      C1684   1.423       .  A
C1683      S1687   1.805       .  S
C1684      C1685   1.397       .  A
C1685      C1686   1.391       .  A
C1685      H1692   1.073       .  S
C1686      S1688   1.799       .  S
S1687      H1690   1.407       .  S
S1688      H1689   1.401       .  S
C1693      C2390   1.403   1_545  A
C1693      C1698   1.409       .  A
C1694      C2389   1.403       .  A
C1694      C1695   1.405       .  A
C1694      H1703   1.084       .  S
C1695      C1696   1.416       .  A
C1695      S1699   1.800       .  S
C1696      C2393   1.407       .  A
C1697      C2392   1.407   1_545  A
C1697      C1698   1.393       .  A
C1697      H1704   1.084       .  S
C1698      S1700   1.808       .  S
S1699      H1702   1.407       .  S
S1700      H1701   1.402       .  S
C1705      C1706   1.397       .  A
C1705      C1710   1.417       .  A
C1706      C1707   1.396       .  A
C1706      H1715   1.079       .  S
C1707      C1708   1.409       .  A
C1707      S1711   1.792       .  S
C1708      C1709   1.402       .  A
C1709      C1710   1.411       .  A
C1709      H1716   1.083       .  S
C1710      S1712   1.803       .  S
S1711      H1714   1.406       .  S
S1712      H1713   1.407       .  S
C1717      C1718   1.397       .  A
C1717      C1722   1.418       .  A
C1718      C1719   1.400       .  A
C1718      H1727   1.084       .  S
C1719      C1720   1.419       .  A
C1719      S1723   1.803       .  S
C1720      C1721   1.400       .  A
C1721      C1722   1.405       .  A
C1721      H1728   1.084       .  S
C1722      S1724   1.799   1_545  S
S1723      H1726   1.404       .  S
S1724      H1725   1.405       .  S
C1729      C1730   1.402       .  A
C1729      C1734   1.418       .  A
C1730      C1731   1.404       .  A
C1730      H1739   1.083       .  S
C1731      C1732   1.409       .  A
C1731      S1735   1.797       .  S
C1732      C1733   1.398       .  A
C1733      C1734   1.402       .  A
C1733      H1740   1.084       .  S
C1734      S1736   1.797       .  S
S1735      H1738   1.407       .  S
S1736      H1737   1.406       .  S
C1741      C1742   1.404       .  A
C1741      C1746   1.412       .  A
C1742      C1743   1.397       .  A
C1742      H1751   1.084       .  S
C1743      C1744   1.410       .  A
C1743      S1747   1.795       .  S
C1744      C1745   1.404       .  A
C1745      C1746   1.399       .  A
C1745      H1752   1.084       .  S
C1746      S1748   1.799       .  S
S1747      H1750   1.404       .  S
S1748      H1749   1.406       .  S
C1753      C1754   1.402       .  A
C1753      C1758   1.421       .  A
C1754      C1755   1.404       .  A
C1754      H1763   1.084       .  S
C1755      C1756   1.414       .  A
C1755      S1759   1.799       .  S
C1756      C1757   1.395       .  A
C1757      C1758   1.399       .  A
C1757      H1764   1.079       .  S
C1758      S1760   1.805       .  S
S1759      H1762   1.405       .  S
S1760      H1761   1.396       .  S
C1765      C1766   1.410       .  A
C1765      C1770   1.414       .  A
C1766      C1767   1.402       .  A
C1766      H1775   1.084       .  S
C1767      C1768   1.416   1_554  A
C1767      S1771   1.799       .  S
C1768      C1769   1.413       .  A
C1769      C1770   1.408   1_556  A
C1769      H1776   1.084       .  S
C1770      S1772   1.799       .  S
S1771      H1774   1.408   1_554  S
S1772      H1773   1.406       .  S
C1777      C1778   1.402   1_554  A
C1777      C1782   1.417       .  A
C1778      C1779   1.407       .  A
C1778      H1787   1.084       .  S
C1779      C1780   1.422       .  A
C1779      S1783   1.800       .  S
C1780      C1781   1.406       .  A
C1781      C1782   1.401   1_556  A
C1781      H1788   1.084   1_655  S
C1782      S1784   1.800       .  S
S1783      H1786   1.407       .  S
S1784      H1785   1.408       .  S
C1789      C1790   1.403       .  A
C1790      C1791   1.389       .  A
C1790      H1799   1.084       .  S
C1791      S1795   1.800       .  S
C1792      C1793   1.402   1_655  A
C1793      C1794   1.389       .  A
C1793      H1800   1.084       .  S
C1794      S1796   1.801       .  S
S1795      H1798   1.405       .  S
S1796      H1797   1.407       .  S
C1801      C1802   1.395       .  A
C1802      C1803   1.390       .  A
C1802      H1811   1.085       .  S
C1803      S1807   1.802       .  S
C1804      C1805   1.405       .  A
C1805      C1806   1.407       .  A
C1805      H1812   1.083       .  S
C1806      S1808   1.803       .  S
S1808      H1809   1.404       .  S
C1813      C1814   1.413       .  A
C1813      C1818   1.420       .  A
C1814      C1815   1.408       .  A
C1814      H1823   1.083       .  S
C1815      C1816   1.412       .  A
C1815      S1819   1.798       .  S
C1816      C1817   1.408       .  A
C1817      C1818   1.408       .  A
C1817      H1824   1.082       .  S
C1818      S1820   1.808       .  S
S1819      H1822   1.407       .  S
C1825      C1826   1.409       .  A
C1826      C1827   1.387       .  A
C1826      H1835   1.084       .  S
C1827      S1831   1.805       .  S
C1828      C1829   1.399       .  A
C1829      C1830   1.389       .  A
C1829      H1836   1.085       .  S
C1830      S1832   1.799       .  S
S1831      H1834   1.407       .  S
S1832      H1833   1.408       .  S
C1837      C1838   1.407       .  A
C1837      C1842   1.426       .  A
C1838      C1839   1.403       .  A
C1838      H1847   1.084       .  S
C1839      C1840   1.415       .  A
C1839      S1843   1.802       .  S
C1840      C1841   1.402       .  A
C1841      C1842   1.400       .  A
C1841      H1848   1.084   1_545  S
C1842      S1844   1.803       .  S
S1843      H1846   1.408       .  S
S1844      H1845   1.406       .  S
C1849      C1850   1.406       .  A
C1849      C1854   1.407       .  A
C1850      C1851   1.402       .  A
C1850      H1859   1.084       .  S
C1851      C1852   1.413       .  A
C1851      S1855   1.795       .  S
C1852      C1853   1.412       .  A
C1853      C1854   1.403       .  A
C1853      H1860   1.083       .  S
C1854      S1856   1.800       .  S
S1855      H1858   1.406       .  S
S1856      H1857   1.406       .  S
C1861      C1862   1.413       .  A
C1861      C1866   1.417       .  A
C1862      C1863   1.404       .  A
C1862      H1871   1.083       .  S
C1863      C1864   1.414   1_556  A
C1863      S1867   1.800       .  S
C1864      C1865   1.412       .  A
C1865      C1866   1.410   1_554  A
C1865      H1872   1.082       .  S
C1866      S2564   1.809   1_545  S
S1867      H1870   1.407       .  S
S1868      C2562   1.809       .  S
S1868      H1869   1.407   1_556  S
C1873      C2570   1.393   1_545  A
C1873      C1878   1.404       .  A
C1874      C2569   1.393       .  A
C1874      C1875   1.388   1_554  A
C1874      H1883   1.084       .  S
C1875      C1876   1.417       .  A
C1875      S1879   1.813       .  S
C1876      C2573   1.403       .  A
C1877      C2572   1.403   1_545  A
C1877      C1878   1.391   1_556  A
C1877      H1884   1.083       .  S
C1878      S1880   1.808       .  S
S1879      H1882   1.407       .  S
S1880      H1881   1.407       .  S
C1885      C1886   1.409   1_556  A
C1885      C1890   1.422       .  A
C1886      C1887   1.407       .  A
C1886      H1895   1.084       .  S
C1887      C1888   1.413       .  A
C1887      S1891   1.802       .  S
C1888      C1889   1.404       .  A
C1889      C1890   1.407   1_554  A
C1889      H1896   1.083       .  S
C1890      S1892   1.809       .  S
S1891      H1894   1.407       .  S
S1892      H1893   1.406       .  S
C1897      C1898   1.407       .  A
C1897      C1902   1.427       .  A
C1898      C1899   1.405       .  A
C1898      H1907   1.083       .  S
C1899      C1900   1.417       .  A
C1899      S1903   1.804       .  S
C1900      C1901   1.400       .  A
C1901      C1902   1.405       .  A
C1901      H1908   1.084       .  S
C1902      S1904   1.801       .  S
S1903      H1906   1.407       .  S
S1904      H1905   1.404       .  S
C1909      C1910   1.405       .  A
C1909      C1914   1.412       .  A
C1910      C1911   1.409       .  A
C1910      H1919   1.083       .  S
C1911      C1912   1.412       .  A
C1911      S1915   1.794       .  S
C1912      C1913   1.404       .  A
C1913      C1914   1.400       .  A
C1913      H1920   1.084       .  S
C1914      S1916   1.801       .  S
S1915      H1918   1.407       .  S
S1916      H1917   1.407       .  S
C1921      C1922   1.398       .  A
C1921      C2622   1.416   1_545  A
C1922      C1923   1.395       .  A
C1922      H1931   1.085       .  S
C1923      C2620   1.416   1_545  A
C1923      S1927   1.801       .  S
C1924      C2619   1.416       .  A
C1924      C1925   1.402       .  A
C1925      C1926   1.405       .  A
C1925      H1932   1.084       .  S
C1926      C2617   1.416       .  A
C1926      S1928   1.802       .  S
S1927      H1930   1.405       .  S
S1928      H1929   1.402       .  S
C1933      C1934   1.407       .  A
C1933      C1938   1.419       .  A
C1934      C1935   1.401       .  A
C1934      H1943   1.083       .  S
C1935      C1936   1.414       .  A
C1935      S1939   1.803       .  S
C1936      C1937   1.404       .  A
C1937      C1938   1.405       .  A
C1937      H1944   1.084       .  S
C1938      S1940   1.801       .  S
S1939      H1942   1.407       .  S
S1940      H1941   1.405       .  S
C1945      C1946   1.403       .  A
C1945      C2646   1.409       .  A
C1946      C1947   1.389       .  A
C1946      H1955   1.084       .  S
C1947      C2644   1.409       .  A
C1947      S1951   1.805       .  S
C1948      C2643   1.409       .  A
C1948      C1949   1.403   1_545  A
C1949      C1950   1.392       .  A
C1949      H1956   1.084       .  S
C1950      C2641   1.409       .  A
C1950      S1952   1.804       .  S
S1951      H1954   1.407       .  S
S1952      H2649   1.407       .  S
H1953      S2648   1.407       .  S
C1957      C1958   1.408   1_554  A
C1957      C1962   1.417       .  A
C1958      C1959   1.407       .  A
C1958      H1967   1.080       .  S
C1959      C1960   1.413       .  A
C1959      S1963   1.803       .  S
C1960      C1961   1.405       .  A
C1961      C1962   1.401   1_556  A
C1961      H1968   1.084       .  S
C1962      S1964   1.803       .  S
S1963      H1966   1.407       .  S
S1964      H1965   1.408       .  S
C1969      C1970   1.400       .  A
C1969      C1974   1.403   1_556  A
C1970      C1971   1.390   1_556  A
C1970      H1979   1.084       .  S
C1971      C1972   1.413       .  A
C1971      S1975   1.800   1_554  S
C1972      C1973   1.405       .  A
C1973      C1974   1.379       .  A
C1973      H1980   1.083       .  S
C1974      S1976   1.803       .  S
S1975      H1978   1.407   1_556  S
S1976      H1977   1.407       .  S
C1981      C1982   1.404       .  A
C1981      C1986   1.414       .  A
C1982      C1983   1.406       .  A
C1982      H1991   1.081       .  S
C1983      C1984   1.410       .  A
C1983      S1987   1.798       .  S
C1984      C1985   1.404       .  A
C1985      C1986   1.402       .  A
C1985      H1992   1.084       .  S
C1986      S1988   1.798       .  S
S1987      H1990   1.407       .  S
S1988      H1989   1.404       .  S
C1993      C1994   1.398       .  A
C1993      C1998   1.412       .  A
C1994      C1995   1.406       .  A
C1994      H2003   1.083       .  S
C1995      C1996   1.424       .  A
C1995      S1999   1.811       .  S
C1996      C1997   1.403       .  A
C1997      C1998   1.401       .  A
C1997      H2004   1.083       .  S
C1998      S2000   1.800       .  S
S1999      H2002   1.406       .  S
S2000      H2001   1.407       .  S
C2005      C2006   1.407   1_556  A
C2005      C2010   1.424       .  A
C2006      C2007   1.403       .  A
C2006      H2015   1.083       .  S
C2007      C2008   1.415       .  A
C2007      S2011   1.804       .  S
C2008      C2009   1.402       .  A
C2009      C2010   1.407   1_554  A
C2009      H2016   1.084       .  S
C2010      S2012   1.799       .  S
S2011      H2014   1.407       .  S
S2012      H2013   1.406       .  S
C2017      C2018   1.410       .  A
C2017      C2022   1.423       .  A
C2018      C2019   1.407       .  A
C2018      H2027   1.083       .  S
C2019      C2020   1.419       .  A
C2019      S2023   1.802       .  S
C2020      C2021   1.408       .  A
C2021      C2022   1.406       .  A
C2021      H2028   1.084       .  S
C2022      S2024   1.800       .  S
S2023      H2026   1.408       .  S
S2024      H2025   1.408       .  S
C2029      C2030   1.400       .  A
C2029      C2034   1.402       .  A
C2030      C2031   1.396       .  A
C2030      H2039   1.083       .  S
C2031      C2032   1.415       .  A
C2031      S2035   1.807       .  S
C2032      C2033   1.403       .  A
C2033      C2034   1.378       .  A
C2033      H2040   1.083       .  S
C2034      S2036   1.800       .  S
S2035      H2038   1.407       .  S
S2036      H2037   1.408       .  S
C2041      C2042   1.403       .  A
C2041      C2046   1.416       .  A
C2042      C2043   1.406       .  A
C2042      H2051   1.084       .  S
C2043      C2044   1.410       .  A
C2043      S2047   1.795       .  S
C2044      C2045   1.402       .  A
C2045      C2046   1.402       .  A
C2045      H2052   1.084       .  S
C2046      S2048   1.798       .  S
S2047      H2050   1.407       .  S
S2048      H2049   1.405       .  S
C2053      C2054   1.404       .  A
C2053      C2058   1.406       .  A
C2054      C2055   1.404       .  A
C2054      H2063   1.084       .  S
C2055      C2056   1.414       .  A
C2055      S2059   1.801       .  S
C2056      C2057   1.407       .  A
C2057      C2058   1.393       .  A
C2057      H2064   1.084       .  S
C2058      S2060   1.806       .  S
S2059      H2062   1.407       .  S
S2060      H2061   1.407       .  S
C2065      C2066   1.409       .  A
C2065      C2070   1.411       .  A
C2066      C2067   1.403       .  A
C2066      H2075   1.084       .  S
C2067      C2068   1.411       .  A
C2067      S2071   1.804       .  S
C2068      C2069   1.407       .  A
C2069      C2070   1.409       .  A
C2069      H2076   1.084       .  S
C2070      S2072   1.804       .  S
S2071      H2074   1.405       .  S
S2072      H2073   1.407       .  S
C2077      C2078   1.406       .  A
C2077      C2082   1.425       .  A
C2078      C2079   1.398       .  A
C2078      H2087   1.081       .  S
C2079      C2080   1.410       .  A
C2079      S2083   1.804       .  S
C2080      C2081   1.400       .  A
C2081      C2082   1.409       .  A
C2081      H2088   1.083   1_655  S
C2082      S2084   1.809       .  S
S2083      H2086   1.408       .  S
S2084      H2085   1.407   1_655  S
O2089      C2104   1.265       .  A
O2089     Al2097   1.918       .  S
C2090      O2100   1.266       .  A
C2090      O2091   1.264       .  A
C2090      C2716   1.505       .  S
O2091     Al2093   1.917       .  S
O2092      C2094   1.253       .  A
O2092     Al2093   1.867       .  S
Al2093     O2101   1.873       .  S
Al2093     O2103   1.928       .  S
Al2093     O2102   1.783       .  S
C2094      O2107   1.259       .  A
C2094      C2725   1.451       .  S
O2095      C2105   1.262       .  A
O2095     Al2097   1.913       .  S
O2096      C2109   1.274       .  A
O2096     Al2106   1.941       .  S
Al2097     O2110   1.892       .  S
Al2097     O2107   1.878       .  S
Al2097     O2102   1.762       .  S
O2098      C2105   1.258       .  A
O2098     Al2106   1.915       .  S
O2099      C2108   1.266       .  A
O2099     Al2106   1.941       .  S
O2100     Al2106   1.925       .  S
O2101      C2108   1.258       .  A
O2102     Al2106   1.785       .  S
O2103      C2104   1.264       .  A
C2104      C2737   1.485       .  S
C2105      C2773   1.498       .  S
C2108      C2749   1.465       .  S
C2109      O2110   1.262       .  A
C2109      C2764   1.477       .  S
O2111      C2126   1.263       .  A
O2111     Al2119   1.915       .  S
C2112      O2122   1.263       .  A
C2112      O2113   1.261       .  A
C2112      C2656   1.487       .  S
O2113     Al2115   1.918       .  S
O2114      C2116   1.253       .  A
O2114     Al2115   1.863       .  S
Al2115     O2123   1.871       .  S
Al2115     O2125   1.931       .  S
Al2115     O2124   1.788       .  S
C2116      O2129   1.260       .  A
C2116      C2665   1.448       .  S
O2117      C2127   1.261       .  A
O2117     Al2119   1.913       .  S
O2118      C2131   1.273       .  A
O2118     Al2128   1.934       .  S
Al2119     O2132   1.885       .  S
Al2119     O2129   1.879       .  S
Al2119     O2124   1.763       .  S
O2120      C2127   1.261       .  A
O2120     Al2128   1.928       .  S
O2121      C2130   1.270       .  A
O2121     Al2128   1.949       .  S
O2122     Al2128   1.917       .  S
O2123      C2130   1.260       .  A
O2124     Al2128   1.786       .  S
O2125      C2126   1.262       .  A
C2126      C2677   1.485       .  S
C2127      C2701   1.503       .  S
C2130      C2752   1.479       .  S
C2131      O2132   1.262       .  A
C2131      C2689   1.473       .  S
O2133      C2148   1.269       .  A
O2133     Al2141   1.937       .  S
C2134      O2135   1.260       .  A
C2134      C2629   1.495       .  S
O2136      C2138   1.258       .  A
O2136     Al2137   1.883       .  S
Al2137     O2145   1.878       .  S
Al2137     O2147   1.912       .  S
Al2137     O2146   1.790       .  S
C2138      O2151   1.258       .  A
C2138      C2644   1.457       .  S
O2139      C2149   1.267       .  A
O2139     Al2141   1.931       .  S
O2140      C2153   1.270       .  A
O2140     Al2150   1.936       .  S
Al2141     O2154   1.888       .  S
Al2141     O2151   1.884       .  S
Al2141     O2146   1.774       .  S
O2142      C2149   1.260       .  A
O2142     Al2150   1.915       .  S
O2143      C2152   1.267       .  A
O2143     Al2150   1.938       .  S
O2144     Al2150   1.914       .  S
O2145      C2152   1.258       .  A
O2146     Al2150   1.789       .  S
O2147      C2148   1.261       .  A
C2148      C2608   1.490       .  S
C2149      C2593   1.505       .  S
C2152      C2617   1.471       .  S
C2153      O2154   1.260       .  A
C2153      C2740   1.476       .  S
O2155      C2170   1.268       .  A
O2155     Al2163   1.922       .  S
C2156      O2157   1.264       .  A
C2156      C2557   1.505       .  S
O2158      C2160   1.254       .  A
O2158     Al2159   1.863       .  S
Al2159     O2167   1.876       .  S
Al2159     O2169   1.905       .  S
Al2159     O2168   1.778       .  S
C2160      O2173   1.254       .  A
C2160      C2572   1.455       .  S
O2161      C2171   1.263       .  A
O2161     Al2163   1.922       .  S
O2162      C2175   1.274       .  A
O2162     Al2172   1.943       .  S
Al2163     O2176   1.891       .  S
Al2163     O2173   1.876       .  S
Al2163     O2168   1.774       .  S
O2164      C2171   1.263       .  A
O2164     Al2172   1.929       .  S
O2165      C2174   1.266       .  A
O2165     Al2172   1.946       .  S
O2166     Al2172   1.932       .  S
O2167      C2174   1.255       .  A
O2168     Al2172   1.779       .  S
O2169      C2170   1.260       .  A
C2170      C2692   1.491       .  S
C2171      C2581   1.502       .  S
C2174      C2620   1.478       .  S
C2175      O2176   1.262       .  A
C2175      C2545   1.474       .  S
O2177      C2192   1.268       .  A
O2177     Al2185   1.923       .  S
C2178      O2179   1.266       .  A
C2178      C2509   1.507       .  S
O2180      C2182   1.255   1_455  A
O2180     Al2181   1.876   1_455  S
Al2181     O2189   1.877       .  S
Al2181     O2191   1.916       .  S
Al2181     O2190   1.783       .  S
C2182      O2195   1.255       .  A
C2182      C2521   1.461       .  S
O2183      C2193   1.266       .  A
O2183     Al2185   1.926       .  S
O2184      C2197   1.276       .  A
O2184     Al2194   1.952       .  S
Al2185     O2198   1.884       .  S
Al2185     O2195   1.871       .  S
Al2185     O2190   1.772       .  S
O2186      C2193   1.257       .  A
O2186     Al2194   1.909       .  S
O2187      C2196   1.261       .  A
O2187     Al2194   1.934       .  S
O2188     Al2194   1.924       .  S
O2189      C2196   1.256       .  A
O2190     Al2194   1.785       .  S
O2191      C2192   1.264       .  A
C2192      C2761   1.491       .  S
C2193      C2533   1.499       .  S
C2196      C2497   1.470       .  S
C2197      O2198   1.260       .  A
C2197      C2605   1.477       .  S
O2199      C2214   1.269       .  A
O2199     Al2207   1.927       .  S
C2200      O2201   1.259       .  A
C2200      C2476   1.499       .  S
O2202      C2204   1.256       .  A
O2202     Al2203   1.873       .  S
Al2203     O2211   1.863       .  S
Al2203     O2213   1.907       .  S
Al2203     O2212   1.782       .  S
C2204      O2217   1.256       .  A
C2204      C2485   1.458       .  S
O2205      C2215   1.265       .  A
O2205     Al2207   1.924       .  S
O2206      C2219   1.270       .  A
O2206     Al2216   1.938       .  S
Al2207     O2220   1.882       .  S
Al2207     O2217   1.888       .  S
Al2207     O2212   1.778       .  S
O2208      C2215   1.264       .  A
O2208     Al2216   1.920       .  S
O2209      C2218   1.268       .  A
O2209     Al2216   1.951       .  S
O2210     Al2216   1.917       .  S
O2211      C2218   1.255       .  A
O2212     Al2216   1.791       .  S
O2213      C2214   1.262       .  A
C2214      C2548   1.497       .  S
C2215      C2464   1.503       .  S
C2218      C2500   1.480       .  S
C2219      O2220   1.259       .  A
C2219      C2680   1.475       .  S
O2221      C2236   1.252       .  A
O2221     Al2229   1.847       .  S
C2222      O2232   1.257       .  A
C2222      O2223   1.278       .  A
C2222      C2596   1.488       .  S
O2223     Al2225   1.970       .  S
O2224      C2226   1.253       .  A
O2224     Al2225   1.878       .  S
Al2225     O2233   1.906       .  S
Al2225     O2235   1.968       .  S
Al2225     O2234   1.779       .  S
C2226      O2239   1.268       .  A
C2226      C2512   1.501       .  S
O2227      C2237   1.254       .  A
O2227     Al2229   1.878       .  S
O2228      C2241   1.266       .  A
O2228     Al2238   1.908       .  S
Al2229     O2242   1.955       .  S
Al2229     O2239   1.957       .  S
Al2229     O2234   1.778       .  S
O2230      C2237   1.257       .  A
O2230     Al2238   1.881       .  S
O2231      C2240   1.256       .  A
O2231     Al2238   1.898       .  S
O2232     Al2238   1.862       .  S
O2233      C2240   1.257       .  A
O2234     Al2238   1.786       .  S
O2235      C2236   1.274       .  A
C2236      C2449   1.478       .  S
C2237      C2728   1.462       .  S
C2240      C2440   1.476       .  S
C2241      O2242   1.274       .  A
C2241      C2425   1.484       .  S
O2243      C2258   1.252       .  A
O2243     Al2251   1.840       .  S
C2244      O2254   1.258       .  A
C2244      O2245   1.277       .  A
C2244      C2461   1.499       .  S
O2245     Al2247   1.973       .  S
O2246      C2248   1.253       .  A
O2246     Al2247   1.881       .  S
Al2247     O2255   1.897       .  S
Al2247     O2257   1.972       .  S
Al2247     O2256   1.785       .  S
C2248      O2261   1.264       .  A
C2248      C2560   1.503       .  S
O2249      C2259   1.257       .  A
O2249     Al2251   1.884       .  S
O2250      C2263   1.267       .  A
O2250     Al2260   1.913       .  S
Al2251     O2264   1.934       .  S
Al2251     O2261   1.943       .  S
Al2251     O2256   1.781       .  S
O2252      C2259   1.255       .  A
O2252     Al2260   1.871       .  S
O2253      C2262   1.255       .  A
O2253     Al2260   1.892       .  S
O2254     Al2260   1.859       .  S
O2255      C2262   1.254       .  A
O2256     Al2260   1.790       .  S
O2257      C2258   1.275       .  A
C2258      C2416   1.479       .  S
C2259      C2668   1.461       .  S
C2262      C2437   1.475       .  S
C2263      O2264   1.269       .  A
C2263      C2401   1.481       .  S
O2265      C2280   1.265       .  A
O2265     Al2273   1.907       .  S
C2266      O2276   1.262       .  A
C2266      C2536   1.487       .  S
O2267     Al2269   1.911       .  S
O2268      C2270   1.264       .  A
O2268     Al2269   1.935       .  S
Al2269     O2277   1.949       .  S
Al2269     O2279   1.926       .  S
Al2269     O2278   1.784       .  S
C2270      O2283   1.263       .  A
C2270      C2713   1.510       .  S
O2271      C2281   1.260       .  A
O2271     Al2273   1.895       .  S
O2272      C2285   1.261       .  A
O2272     Al2282   1.920       .  S
Al2273     O2286   1.913       .  S
Al2273     O2283   1.918       .  S
Al2273     O2278   1.769       .  S
O2274      C2281   1.257       .  A
O2274     Al2282   1.875       .  S
O2275      C2284   1.258       .  A
O2275     Al2282   1.872       .  S
O2277      C2284   1.268       .  A
O2278     Al2282   1.778       .  S
O2279      C2280   1.268       .  A
C2280      C2428   1.475       .  S
C2281      C2641   1.459       .  S
C2284      C2392   1.485       .  S
C2285      O2286   1.267       .  A
C2285      C2380   1.493       .  S
O2287      C2302   1.257       .  A
O2287     Al2295   1.866       .  S
C2288      O2298   1.251       .  A
C2288      C2704   1.486       .  S
O2289     Al2291   1.961       .  S
O2290      C2292   1.252       .  A
O2290     Al2291   1.878       .  S
Al2291     O2299   1.903       .  S
Al2291     O2301   1.974       .  S
Al2291     O2300   1.788       .  S
C2292      O2305   1.267       .  A
C2292      C2473   1.491       .  S
O2293      C2303   1.258       .  A
O2293     Al2295   1.876       .  S
O2294      C2307   1.260       .  A
O2294     Al2304   1.904       .  S
Al2295     O2308   1.934       .  S
Al2295     O2305   1.954       .  S
Al2295     O2300   1.782       .  S
O2296      C2303   1.257       .  A
O2296     Al2304   1.873       .  S
O2297      C2306   1.257       .  A
O2297     Al2304   1.893       .  S
O2299      C2306   1.259       .  A
O2300     Al2304   1.788       .  S
O2301      C2302   1.275       .  A
C2302      C2368   1.482       .  S
C2303      C2569   1.437       .  S
C2306      C2389   1.465       .  S
C2307      O2308   1.266       .  A
C2307      C2413   1.480       .  S
O2309      C2324   1.266       .  A
O2309     Al2317   1.909       .  S
C2310      O2320   1.262       .  A
C2310      C2584   1.491       .  S
O2311     Al2313   1.917       .  S
O2312      C2314   1.259       .  A
O2312     Al2313   1.912       .  S
Al2313     O2321   1.942       .  S
Al2313     O2323   1.926       .  S
Al2313     O2322   1.787       .  S
C2314      O2327   1.261       .  A
C2314      C2653   1.495       .  S
O2315      C2325   1.262       .  A
O2315     Al2317   1.899       .  S
O2316      C2329   1.262       .  A
O2316     Al2326   1.931       .  S
Al2317     O2330   1.921       .  S
Al2317     O2327   1.921       .  S
Al2317     O2322   1.771       .  S
O2318      C2325   1.256       .  A
O2318     Al2326   1.870       .  S
O2319      C2328   1.260       .  A
O2319     Al2326   1.881       .  S
O2321      C2328   1.268       .  A
O2322     Al2326   1.789       .  S
O2323      C2324   1.269       .  A
C2324      C2404   1.479       .  S
C2325      C2488   1.460       .  S
C2328      C2353   1.470       .  S
C2329      O2330   1.265       .  A
C2329      C2365   1.493       .  S
O2331      C2346   1.257       .  A
O2331     Al2339   1.852       .  S
C2332      O2342   1.252       .  A
C2332      C2776   1.475       .  S
O2333     Al2335   1.954       .  S
O2334      C2336   1.252       .  A
O2334     Al2335   1.887       .  S
Al2335     O2343   1.908       .  S
Al2335     O2345   1.969       .  S
Al2335     O2344   1.789       .  S
C2336      O2349   1.260       .  A
C2336      C2632   1.486       .  S
O2337      C2347   1.254       .  A
O2337     Al2339   1.868       .  S
O2338      C2351   1.262       .  A
O2338     Al2348   1.910       .  S
Al2339     O2352   1.934       .  S
Al2339     O2349   1.928       .  S
Al2339     O2344   1.782       .  S
O2340      C2347   1.260       .  A
O2340     Al2348   1.892       .  S
O2341      C2350   1.256       .  A
O2341     Al2348   1.890       .  S
O2343      C2350   1.259       .  A
O2344     Al2348   1.790       .  S
O2345      C2346   1.275       .  A
C2346      C2377   1.482       .  S
C2347      C2524   1.441       .  S
C2350      C2356   1.479       .  S
C2351      O2352   1.265       .  A
C2351      C2452   1.479       .  S
C2353      C2354   1.403   1_655  A
C2354      H2363   1.084       .  S
C2355      C2356   1.413       .  A
C2356      C2357   1.407       .  A
C2357      C2358   1.399       .  A
C2357      H2364   1.084       .  S
C2358      S2360   1.800       .  S
S2360      H2361   1.404       .  S
C2365      C2366   1.400       .  A
C2365      C2370   1.417       .  A
C2366      C2367   1.400       .  A
C2366      H2375   1.074       .  S
C2367      C2368   1.412       .  A
C2367      S2371   1.800       .  S
C2368      C2369   1.403       .  A
C2369      C2370   1.410       .  A
C2369      H2376   1.083       .  S
C2370      S2372   1.801       .  S
S2371      H2374   1.406       .  S
S2372      H2373   1.407   1_655  S
C2377      C2378   1.403       .  A
C2377      C2382   1.412       .  A
C2378      C2379   1.413       .  A
C2378      H2387   1.083       .  S
C2379      C2380   1.423       .  A
C2379      S2383   1.805       .  S
C2380      C2381   1.397       .  A
C2381      C2382   1.391       .  A
C2381      H2388   1.073       .  S
C2382      S2384   1.799       .  S
S2383      H2386   1.407       .  S
S2384      H2385   1.401       .  S
C2389      C2394   1.409       .  A
C2390      C2391   1.405       .  A
C2390      H2399   1.084       .  S
C2391      C2392   1.416       .  A
C2391      S2395   1.800       .  S
C2393      C2394   1.393       .  A
C2393      H2400   1.084       .  S
C2394      S2396   1.808       .  S
S2395      H2398   1.407       .  S
S2396      H2397   1.402       .  S
C2401      C2402   1.397       .  A
C2401      C2406   1.417       .  A
C2402      C2403   1.396       .  A
C2402      H2411   1.080       .  S
C2403      C2404   1.408       .  A
C2403      S2407   1.791       .  S
C2404      C2405   1.402       .  A
C2405      C2406   1.411       .  A
C2405      H2412   1.083       .  S
C2406      S2408   1.803       .  S
S2407      H2410   1.406       .  S
S2408      H2409   1.407       .  S
C2413      C2414   1.397       .  A
C2413      C2418   1.418       .  A
C2414      C2415   1.401       .  A
C2414      H2423   1.084       .  S
C2415      C2416   1.419       .  A
C2415      S2419   1.803       .  S
C2416      C2417   1.400       .  A
C2417      C2418   1.405       .  A
C2417      H2424   1.084       .  S
C2418      S2420   1.799       .  S
S2419      H2422   1.404       .  S
S2420      H2421   1.405       .  S
C2425      C2426   1.402       .  A
C2425      C2430   1.418       .  A
C2426      C2427   1.404       .  A
C2426      H2435   1.083       .  S
C2427      C2428   1.409       .  A
C2427      S2431   1.797       .  S
C2428      C2429   1.398       .  A
C2429      C2430   1.402       .  A
C2429      H2436   1.084       .  S
C2430      S2432   1.797       .  S
S2431      H2434   1.407       .  S
S2432      H2433   1.406       .  S
C2437      C2438   1.404       .  A
C2437      C2442   1.412       .  A
C2438      C2439   1.397       .  A
C2438      H2447   1.084       .  S
C2439      C2440   1.410       .  A
C2439      S2443   1.795       .  S
C2440      C2441   1.404       .  A
C2441      C2442   1.399       .  A
C2441      H2448   1.084       .  S
C2442      S2444   1.799       .  S
S2443      H2446   1.405       .  S
S2444      H2445   1.406       .  S
C2449      C2450   1.402       .  A
C2449      C2454   1.421       .  A
C2450      C2451   1.404       .  A
C2450      H2459   1.084       .  S
C2451      C2452   1.415       .  A
C2451      S2455   1.799       .  S
C2452      C2453   1.395       .  A
C2453      C2454   1.399       .  A
C2453      H2460   1.079       .  S
C2454      S2456   1.805       .  S
S2455      H2458   1.405       .  S
S2456      H2457   1.396       .  S
C2461      C2462   1.410       .  A
C2461      C2466   1.414       .  A
C2462      C2463   1.402       .  A
C2462      H2471   1.084       .  S
C2463      C2464   1.416   1_554  A
C2463      S2467   1.799       .  S
C2464      C2465   1.413       .  A
C2465      C2466   1.408   1_556  A
C2465      H2472   1.083       .  S
C2466      S2468   1.799       .  S
S2467      H2470   1.408   1_554  S
S2468      H2469   1.406       .  S
C2473      C2474   1.402   1_554  A
C2473      C2478   1.417       .  A
C2474      C2475   1.407       .  A
C2474      H2483   1.084       .  S
C2475      C2476   1.422       .  A
C2475      S2479   1.800       .  S
C2476      C2477   1.406       .  A
C2477      C2478   1.401   1_556  A
C2477      H2484   1.084   1_655  S
C2478      S2480   1.800       .  S
S2479      H2482   1.407       .  S
S2480      H2481   1.408       .  S
C2485      C2486   1.403       .  A
C2486      C2487   1.389       .  A
C2486      H2495   1.084       .  S
C2487      S2491   1.800       .  S
C2488      C2489   1.402   1_655  A
C2489      C2490   1.389       .  A
C2489      H2496   1.084       .  S
C2490      S2492   1.801       .  S
S2491      H2494   1.405       .  S
S2492      H2493   1.407       .  S
C2497      C2498   1.395       .  A
C2498      C2499   1.390       .  A
C2498      H2507   1.085       .  S
C2499      S2503   1.802       .  S
C2500      C2501   1.405       .  A
C2501      C2502   1.407       .  A
C2501      H2508   1.083       .  S
C2502      S2504   1.803       .  S
S2504      H2505   1.404       .  S
C2509      C2510   1.413       .  A
C2509      C2514   1.420       .  A
C2510      C2511   1.408       .  A
C2510      H2519   1.083       .  S
C2511      C2512   1.412       .  A
C2511      S2515   1.798       .  S
C2512      C2513   1.408       .  A
C2513      C2514   1.408       .  A
C2513      H2520   1.082       .  S
C2514      S2516   1.808       .  S
S2515      H2518   1.407       .  S
C2521      C2522   1.409       .  A
C2522      C2523   1.387       .  A
C2522      H2531   1.084       .  S
C2523      S2527   1.805       .  S
C2524      C2525   1.399       .  A
C2525      C2526   1.389       .  A
C2525      H2532   1.085       .  S
C2526      S2528   1.799       .  S
S2527      H2530   1.407       .  S
S2528      H2529   1.408       .  S
C2533      C2534   1.407       .  A
C2533      C2538   1.426       .  A
C2534      C2535   1.403       .  A
C2534      H2543   1.084       .  S
C2535      C2536   1.415       .  A
C2535      S2539   1.802       .  S
C2536      C2537   1.402       .  A
C2537      C2538   1.400       .  A
C2537      H2544   1.084       .  S
C2538      S2540   1.803       .  S
S2539      H2542   1.408       .  S
S2540      H2541   1.406       .  S
C2545      C2546   1.406       .  A
C2545      C2550   1.407       .  A
C2546      C2547   1.402       .  A
C2546      H2555   1.084       .  S
C2547      C2548   1.413       .  A
C2547      S2551   1.795       .  S
C2548      C2549   1.412       .  A
C2549      C2550   1.403       .  A
C2549      H2556   1.083       .  S
C2550      S2552   1.800       .  S
S2551      H2554   1.406       .  S
S2552      H2553   1.406       .  S
C2557      C2558   1.413       .  A
C2557      C2562   1.417       .  A
C2558      C2559   1.404       .  A
C2558      H2567   1.083       .  S
C2559      C2560   1.414   1_556  A
C2559      S2563   1.800       .  S
C2560      C2561   1.412       .  A
C2561      C2562   1.410   1_554  A
C2561      H2568   1.082       .  S
S2563      H2566   1.407       .  S
S2564      H2565   1.407   1_566  S
C2569      C2574   1.404       .  A
C2570      C2571   1.388   1_554  A
C2570      H2579   1.084       .  S
C2571      C2572   1.417       .  A
C2571      S2575   1.813       .  S
C2573      C2574   1.391   1_556  A
C2573      H2580   1.083       .  S
C2574      S2576   1.808       .  S
S2575      H2578   1.407       .  S
S2576      H2577   1.407       .  S
C2581      C2582   1.409   1_556  A
C2581      C2586   1.422       .  A
C2582      C2583   1.407       .  A
C2582      H2591   1.084       .  S
C2583      C2584   1.413       .  A
C2583      S2587   1.802       .  S
C2584      C2585   1.404       .  A
C2585      C2586   1.407   1_554  A
C2585      H2592   1.083       .  S
C2586      S2588   1.809       .  S
S2587      H2590   1.407       .  S
S2588      H2589   1.406       .  S
C2593      C2594   1.407       .  A
C2593      C2598   1.427       .  A
C2594      C2595   1.405       .  A
C2594      H2603   1.083       .  S
C2595      C2596   1.417       .  A
C2595      S2599   1.804       .  S
C2596      C2597   1.400       .  A
C2597      C2598   1.405       .  A
C2597      H2604   1.084       .  S
C2598      S2600   1.801       .  S
S2599      H2602   1.407       .  S
S2600      H2601   1.404       .  S
C2605      C2606   1.405       .  A
C2605      C2610   1.412       .  A
C2606      C2607   1.409       .  A
C2606      H2615   1.083       .  S
C2607      C2608   1.412       .  A
C2607      S2611   1.794       .  S
C2608      C2609   1.405       .  A
C2609      C2610   1.400       .  A
C2609      H2616   1.084       .  S
C2610      S2612   1.801       .  S
S2611      H2614   1.407       .  S
S2612      H2613   1.407       .  S
C2617      C2618   1.398       .  A
C2618      C2619   1.395       .  A
C2618      H2627   1.085       .  S
C2619      S2623   1.801       .  S
C2620      C2621   1.402       .  A
C2621      C2622   1.405       .  A
C2621      H2628   1.084       .  S
C2622      S2624   1.802       .  S
S2623      H2626   1.405       .  S
S2624      H2625   1.402       .  S
C2629      C2630   1.407       .  A
C2629      C2634   1.419       .  A
C2630      C2631   1.401       .  A
C2630      H2639   1.083   1_565  S
C2631      C2632   1.414       .  A
C2631      S2635   1.803       .  S
C2632      C2633   1.404       .  A
C2633      C2634   1.405       .  A
C2633      H2640   1.084       .  S
C2634      S2636   1.801       .  S
S2635      H2638   1.407       .  S
S2636      H2637   1.405       .  S
C2641      C2642   1.403   1_565  A
C2642      C2643   1.389       .  A
C2642      H2651   1.084       .  S
C2643      S2647   1.805       .  S
C2644      C2645   1.403       .  A
C2645      C2646   1.392       .  A
C2645      H2652   1.084       .  S
C2646      S2648   1.804       .  S
S2647      H2650   1.407       .  S
C2653      C2654   1.408   1_554  A
C2653      C2658   1.417       .  A
C2654      C2655   1.407       .  A
C2654      H2663   1.079       .  S
C2655      C2656   1.413       .  A
C2655      S2659   1.803       .  S
C2656      C2657   1.405       .  A
C2657      C2658   1.401   1_556  A
C2657      H2664   1.084       .  S
C2658      S2660   1.803       .  S
S2659      H2662   1.407       .  S
S2660      H2661   1.408       .  S
C2665      C2666   1.400       .  A
C2665      C2670   1.403   1_556  A
C2666      C2667   1.390   1_556  A
C2666      H2675   1.084       .  S
C2667      C2668   1.413       .  A
C2667      S2671   1.800   1_554  S
C2668      C2669   1.405       .  A
C2669      C2670   1.379       .  A
C2669      H2676   1.083       .  S
C2670      S2672   1.803       .  S
S2671      H2674   1.407   1_556  S
S2672      H2673   1.407       .  S
C2677      C2678   1.404       .  A
C2677      C2682   1.414       .  A
C2678      C2679   1.406       .  A
C2678      H2687   1.082       .  S
C2679      C2680   1.410       .  A
C2679      S2683   1.798       .  S
C2680      C2681   1.403       .  A
C2681      C2682   1.402       .  A
C2681      H2688   1.084       .  S
C2682      S2684   1.798       .  S
S2683      H2686   1.407       .  S
S2684      H2685   1.405       .  S
C2689      C2690   1.398       .  A
C2689      C2694   1.412       .  A
C2690      C2691   1.406       .  A
C2690      H2699   1.083       .  S
C2691      C2692   1.424       .  A
C2691      S2695   1.811       .  S
C2692      C2693   1.403       .  A
C2693      C2694   1.401       .  A
C2693      H2700   1.083       .  S
C2694      S2696   1.800       .  S
S2695      H2698   1.406       .  S
S2696      H2697   1.407       .  S
C2701      C2702   1.407   1_556  A
C2701      C2706   1.424       .  A
C2702      C2703   1.403       .  A
C2702      H2711   1.083       .  S
C2703      C2704   1.415       .  A
C2703      S2707   1.804       .  S
C2704      C2705   1.402       .  A
C2705      C2706   1.407   1_554  A
C2705      H2712   1.084       .  S
C2706      S2708   1.799       .  S
S2707      H2710   1.407       .  S
S2708      H2709   1.406       .  S
C2713      C2714   1.410       .  A
C2713      C2718   1.423       .  A
C2714      C2715   1.407       .  A
C2714      H2723   1.083       .  S
C2715      C2716   1.419       .  A
C2715      S2719   1.801       .  S
C2716      C2717   1.408       .  A
C2717      C2718   1.406       .  A
C2717      H2724   1.084       .  S
C2718      S2720   1.801       .  S
S2719      H2722   1.408       .  S
S2720      H2721   1.408       .  S
C2725      C2726   1.400       .  A
C2725      C2730   1.402       .  A
C2726      C2727   1.396       .  A
C2726      H2735   1.083       .  S
C2727      C2728   1.415       .  A
C2727      S2731   1.807       .  S
C2728      C2729   1.403       .  A
C2729      C2730   1.378       .  A
C2729      H2736   1.083       .  S
C2730      S2732   1.800       .  S
S2731      H2734   1.407       .  S
S2732      H2733   1.408       .  S
C2737      C2738   1.403       .  A
C2737      C2742   1.415       .  A
C2738      C2739   1.406       .  A
C2738      H2747   1.084       .  S
C2739      C2740   1.410       .  A
C2739      S2743   1.796       .  S
C2740      C2741   1.402       .  A
C2741      C2742   1.402       .  A
C2741      H2748   1.084       .  S
C2742      S2744   1.798       .  S
S2743      H2746   1.407       .  S
S2744      H2745   1.405       .  S
C2749      C2750   1.404       .  A
C2749      C2754   1.406       .  A
C2750      C2751   1.404       .  A
C2750      H2759   1.084       .  S
C2751      C2752   1.414       .  A
C2751      S2755   1.801       .  S
C2752      C2753   1.407       .  A
C2753      C2754   1.393       .  A
C2753      H2760   1.084       .  S
C2754      S2756   1.806       .  S
S2755      H2758   1.407       .  S
S2756      H2757   1.407       .  S
C2761      C2762   1.408       .  A
C2761      C2766   1.411       .  A
C2762      C2763   1.403       .  A
C2762      H2771   1.084       .  S
C2763      C2764   1.411       .  A
C2763      S2767   1.804       .  S
C2764      C2765   1.407       .  A
C2765      C2766   1.409       .  A
C2765      H2772   1.084       .  S
C2766      S2768   1.804       .  S
S2767      H2770   1.405       .  S
S2768      H2769   1.407       .  S
C2773      C2774   1.406       .  A
C2773      C2778   1.425       .  A
C2774      C2775   1.398       .  A
C2774      H2783   1.081       .  S
C2775      C2776   1.410       .  A
C2775      S2779   1.804       .  S
C2776      C2777   1.400       .  A
C2777      C2778   1.409       .  A
C2777      H2784   1.083   1_655  S
C2778      S2780   1.809       .  S
S2779      H2782   1.408       .  S
S2780      H2781   1.407   1_655  S
