geometry optimzed in LAMMPS
_audit_creation_date              2020-11-30 
_audit_creation_method            'lammps2cif' 
_symmetry_space_group_name_H-M    'P1' 
_symmetry_Int_Tables_number       1 
_symmetry_cell_setting            triclinic 
loop_ 
_symmetry_equiv_pos_as_xyz 
  x,y,z 
_cell_length_a                    41.97246342 
_cell_length_b                    41.68981082515725 
_cell_length_c                    53.762682177530934 
_cell_angle_alpha                 90.35107067625202 
_cell_angle_beta                  89.78318119002198 
_cell_angle_gamma                 120.07261044563693 
loop_ 
_atom_site_label 
_atom_site_type_symbol 
_atom_site_fract_x 
_atom_site_fract_y 
_atom_site_fract_z 
_atom_site_charge 
O1          O  0.98718040  0.14364424  0.96248583    -0.83600
C2          C  0.08552491  0.29678689  0.94870878     0.95800
O3          O  0.05657002  0.27673710  0.93662107    -0.72700
O4          O  0.06054493  0.21927986  0.92090654    -0.76300
Al5        Al  0.02319059  0.22542094  0.93731063     1.49000
C6          C  0.06855115  0.19410740  0.92419106     0.91000
O7          O  0.08527210  0.20089274  0.98622449    -0.82500
O8          O  0.00994595  0.21999711  0.01242722    -0.76100
Al9        Al  0.03603174  0.17574613  0.97419348     1.90100
O10         O  0.08448407  0.24469866  0.00787387    -0.75100
O11         O  0.01830541  0.27089395  0.97997312    -0.75000
O12         O  0.08920801  0.28831581  0.97070923    -0.80600
O13         O  0.98455866  0.23292072  0.95034916    -0.78800
O14         O  0.03594093  0.21763783  0.96741544    -1.15000
O15         O  0.48708358  0.17616390  0.93076173    -0.74200
C16         C  0.47313854  0.14623861  0.94246369     0.96500
C17         C  0.10017212  0.22685807  0.00186250     0.92900
Al18       Al  0.04927312  0.25280391  0.99076796     1.55600
O19         O  0.05671292  0.17327511  0.94299450    -0.78800
C20         C  0.99033830  0.25781735  0.96621803     0.97100
C21         C  0.00120849  0.18720988  0.01837951     0.92000
O22         O  0.01485991  0.17022403  0.00690769    -0.84100
O23         O  0.35306866  0.49688966  0.88431407    -0.83600
C24         C  0.20488559  0.41519377  0.89522259     0.95800
O25         O  0.23326089  0.43560164  0.90758419    -0.72700
O26         O  0.30046037  0.45424304  0.91710195    -0.76300
Al27       Al  0.27655026  0.47747090  0.89932304     1.49000
C28         C  0.30560294  0.42763412  0.91074817     0.91000
O29         O  0.29738416  0.41618522  0.83910925    -0.82500
O30         O  0.27714403  0.46865988  0.81976651    -0.76100
Al31       Al  0.31929343  0.45681484  0.86264044     1.90100
O32         O  0.23919078  0.39792332  0.84206419    -0.75100
O33         O  0.23982255  0.48700656  0.84927320    -0.75000
O34         O  0.20411006  0.41864783  0.87180106    -0.80600
O35         O  0.25105790  0.50284873  0.88840643    -0.78800
O36         O  0.27916719  0.45941217  0.86980701    -1.15000
O37         O  0.32050782  0.52256084  0.89422603    -0.74200
C38         C  0.35099163  0.02383244  0.89337962     0.96500
C39         C  0.26424807  0.39185238  0.83536086     0.92900
Al40       Al  0.24311397  0.44431140  0.84757247     1.55600
O41         O  0.30823951  0.42117137  0.88802050    -0.78800
C42         C  0.23921462  0.50557375  0.86743329     0.97100
C43         C  0.31166334  0.49186713  0.81998630     0.92000
O44         O  0.33202629  0.49220517  0.83739021    -0.84100
O45         O  0.35027196  0.38573552  0.29538494    -0.83600
C46         C  0.20076511  0.33684742  0.27982205     0.95800
O47         O  0.21876334  0.32429664  0.26887890    -0.72700
O48         O  0.27536622  0.38678823  0.25401446    -0.76300
Al49       Al  0.26993551  0.34290045  0.26939592     1.49000
C50         C  0.30075559  0.41994081  0.25762273     0.91000
O51         O  0.29550407  0.42964494  0.31960333    -0.82500
O52         O  0.27369623  0.33321336  0.34431586    -0.76100
Al53       Al  0.31942055  0.40428340  0.30706654     1.90100
O54         O  0.25118762  0.38478024  0.34040197    -0.75100
O55         O  0.22377382  0.29247297  0.31072609    -0.75000
O56         O  0.20838642  0.34837746  0.30211142    -0.80600
O57         O  0.26309067  0.29644477  0.28225242    -0.78800
O58         O  0.27759760  0.36308209  0.29973704    -1.15000
O59         O  0.31917890  0.35724809  0.26208934    -0.74200
C60         C  0.34857886  0.37167475  0.27427233     0.96500
C61         C  0.26981906  0.41861901  0.33528448     0.92900
Al62       Al  0.24221066  0.34149351  0.32253060     1.55600
O63         O  0.32233049  0.42819163  0.27601343    -0.78800
C64         C  0.23790989  0.27740344  0.29788557     0.97100
C65         C  0.30636392  0.35688648  0.35057042     0.92000
O66         O  0.32381765  0.38765458  0.33938850    -0.84100
O67         O  0.98616991  0.38766928  0.20737188    -0.83600
C68         C  0.08585668  0.33732465  0.22207485     0.95800
O69         O  0.05530191  0.32466945  0.23287161    -0.72700
O70         O  0.06168902  0.38716909  0.24837101    -0.76300
Al71       Al  0.02318112  0.34396346  0.23266694     1.49000
C72         C  0.06973063  0.42043122  0.24508797     0.91000
O73         O  0.08469744  0.43067748  0.18342469    -0.82500
O74         O  0.00974261  0.33484681  0.15786323    -0.76100
Al75       Al  0.03543879  0.40577778  0.19569810     1.90100
O76         O  0.08379461  0.38580084  0.16202216    -0.75100
O77         O  0.01858958  0.29356076  0.19088303    -0.75000
O78         O  0.08983810  0.34896648  0.19989285    -0.80600
O79         O  0.98347083  0.29831762  0.21927103    -0.78800
O80         O  0.03578301  0.36433168  0.20255534    -1.15000
O81         O  0.48880450  0.35892690  0.24037241    -0.74200
C82         C  0.47383825  0.37348531  0.22837122     0.96500
C83         C  0.09946005  0.41950499  0.16781072     0.92900
Al84       Al  0.04934590  0.34258981  0.17951218     1.55600
O85         O  0.05653837  0.42917050  0.22690122    -0.78800
C86         C  0.98939938  0.27904866  0.20356626     0.97100
C87         C  0.00060896  0.35856063  0.15197114     0.92000
O88         O  0.01422373  0.38945922  0.16325297    -0.84100
O89         O  0.35499019  0.01741357  0.13105974    -0.83600
C90         C  0.30644425  0.11854324  0.11443891     0.95800
O91         O  0.29395949  0.08766306  0.10369537    -0.72700
O92         O  0.35581077  0.09259154  0.08850966    -0.76300
Al93       Al  0.31225592  0.05459345  0.10454894     1.49000
C94         C  0.38875007  0.10008015  0.09180517     0.91000
O95         O  0.39846167  0.11693207  0.15377066    -0.82500
O96         O  0.30255430  0.04226380  0.17911908    -0.76100
Al97       Al  0.37345059  0.06723263  0.14199105     1.90100
O98         O  0.35384012  0.11621810  0.17498801    -0.75100
O99         O  0.26227401  0.05177759  0.14576675    -0.75000
O100        O  0.31795519  0.12284507  0.13669329    -0.80600
O101        O  0.26621316  0.01510513  0.11815516    -0.78800
O102        O  0.33248623  0.06784951  0.13464214    -1.15000
O103        O  0.32657650  0.01946564  0.09770666    -0.74200
C104        C  0.34124026  0.00487872  0.10999919     0.96500
C105        C  0.38736515  0.13158553  0.16952761     0.92900
Al106      Al  0.31097258  0.08210705  0.15731634     1.55600
O107        O  0.39712089  0.08734829  0.11048619    -0.78800
C108        C  0.24741385  0.02167506  0.13382602     0.97100
C109        C  0.32615236  0.03345696  0.18567067     0.92000
O110        O  0.35704493  0.04698336  0.17473505    -0.84100
O111        O  0.35751238  0.38416833  0.04233375    -0.83600
C112        C  0.30531411  0.23270683  0.05534567     0.95800
O113        O  0.29219775  0.25062099  0.06565079    -0.72700
O114        O  0.35479614  0.30663609  0.08219072    -0.76300
Al115      Al  0.31197202  0.30224753  0.06580949     1.49000
C116        C  0.38808709  0.33184501  0.07910115     0.91000
O117        O  0.40050025  0.32999532  0.01572440    -0.82500
O118        O  0.30671227  0.30800471  0.99001329    -0.76100
Al119      Al  0.37495185  0.35306218  0.02962147     1.90100
O120        O  0.35582685  0.28375822  0.99604283    -0.75100
O121        O  0.26355687  0.25800439  0.02289450    -0.75000
O122        O  0.31777765  0.24061111  0.03333710    -0.80600
O123        O  0.26677957  0.29683745  0.05179742    -0.78800
O124        O  0.33350836  0.31075771  0.03586486    -1.15000
O125        O  0.32655145  0.35128628  0.07419683    -0.74200
C126        C  0.34244541  0.38156292  0.06304198     0.96500
C127        C  0.38949335  0.30364209  0.00038178     0.92900
Al128      Al  0.31272839  0.27555471  0.01252663     1.55600
O129        O  0.39754389  0.35337167  0.06056603    -0.78800
C130        C  0.24843802  0.27250523  0.03531550     0.97100
C131        C  0.32927180  0.34194386  0.98559718     0.92000
O132        O  0.35864573  0.35973055  0.99806732    -0.84100
O133        O  0.10981291  0.13630292  0.79491299    -0.83600
C134        C  0.25991270  0.18558041  0.78019181     0.95800
O135        O  0.24197922  0.19811195  0.76928299    -0.72700
O136        O  0.18448869  0.13650784  0.75379492    -0.76300
Al137      Al  0.19070416  0.18016421  0.76991830     1.49000
C138        C  0.15974184  0.10317493  0.75753122     0.91000
O139        O  0.16410635  0.09345936  0.82006063    -0.82500
O140        O  0.18652345  0.18987551  0.84469810    -0.76100
Al141      Al  0.14078674  0.11856381  0.80714227     1.90100
O142        O  0.20874190  0.13826645  0.84077165    -0.75100
O143        O  0.23729058  0.23101173  0.81145214    -0.75000
O144        O  0.25213540  0.17431680  0.80248186    -0.80600
O145        O  0.19724595  0.22607578  0.78348817    -0.78800
O146        O  0.18279414  0.15974168  0.80002936    -1.15000
O147        O  0.14203617  0.16655983  0.76257026    -0.74200
C148        C  0.11218258  0.15113725  0.77414941     0.96500
C149        C  0.18961701  0.10438857  0.83572543     0.92900
Al150      Al  0.21816150  0.18149652  0.82294948     1.55600
O151        O  0.13901293  0.09428240  0.77643562    -0.78800
C152        C  0.22207206  0.24534340  0.79921267     0.97100
C153        C  0.15356578  0.16660248  0.85063854     0.92000
O154        O  0.13575338  0.13595005  0.83917999    -0.84100
O155        O  0.47463026  0.13294766  0.70713289    -0.83600
C156        C  0.37617463  0.18524807  0.72241181     0.95800
O157        O  0.40669861  0.19768321  0.73325459    -0.72700
O158        O  0.40219126  0.13628659  0.74899609    -0.76300
Al159      Al  0.43951883  0.17898318  0.73251869     1.49000
C160        C  0.39272049  0.10263064  0.74547871     0.91000
O161        O  0.37678029  0.09160905  0.68352924    -0.82500
O162        O  0.45248319  0.18673271  0.65795580    -0.76100
Al163      Al  0.42570786  0.11582886  0.69555320     1.90100
O164        O  0.37817743  0.13613093  0.66191520    -0.75100
O165        O  0.44349603  0.22900340  0.69086942    -0.75000
O166        O  0.37228941  0.17359969  0.70011231    -0.80600
O167        O  0.47883941  0.22432956  0.71874724    -0.78800
O168        O  0.42613581  0.15782289  0.70255001    -1.15000
O169        O  0.47415523  0.16458347  0.73946860    -0.74200
C170        C  0.48790730  0.14850890  0.72766716     0.96500
C171        C  0.36210100  0.10263007  0.66804789     0.92900
Al172      Al  0.41275337  0.17951618  0.67956855     1.55600
O173        O  0.40380967  0.09264900  0.72661456    -0.78800
C174        C  0.47287533  0.24351616  0.70327767     0.97100
C175        C  0.46172858  0.16294831  0.65210660     0.92000
O176        O  0.44748101  0.13191674  0.66311572    -0.84100
O177        O  0.47751707  0.38523420  0.46065852    -0.83600
C178        C  0.37830124  0.23404399  0.44652560     0.95800
O179        O  0.40927198  0.25165445  0.43627464    -0.72700
O180        O  0.40280112  0.30754428  0.41969311    -0.76300
Al181      Al  0.44117868  0.30326634  0.43632483     1.49000
C182        C  0.39468986  0.33284157  0.42272890     0.91000
O183        O  0.37901294  0.32997510  0.48482921    -0.82500
O184        O  0.45156611  0.30901648  0.51169169    -0.76100
Al185      Al  0.42832842  0.35399086  0.47233698     1.90100
O186        O  0.37876350  0.28541561  0.50576660    -0.75100
O187        O  0.44479373  0.25859408  0.47901014    -0.75000
O188        O  0.37372544  0.24211629  0.46850516    -0.80600
O189        O  0.48068983  0.29786551  0.45068765    -0.78800
O190        O  0.42789895  0.31182090  0.46609753    -1.15000
O191        O  0.47579600  0.35243484  0.42848198    -0.74200
C192        C  0.49040712  0.38259236  0.44006711     0.96500
C193        C  0.36379812  0.30387300  0.50021563     0.92900
Al194      Al  0.41343493  0.27673556  0.48932384     1.55600
O195        O  0.40730437  0.35495639  0.44104487    -0.78800
C196        C  0.47449703  0.27327529  0.46686461     0.97100
C197        C  0.46191979  0.34263710  0.51654830     0.92000
O198        O  0.44985832  0.36025734  0.50441647    -0.84100
O199        O  0.11379904  0.01759825  0.37268588    -0.83600
C200        C  0.26299893  0.11943472  0.38805933     0.95800
O201        O  0.24512903  0.08891838  0.39906503    -0.72700
O202        O  0.18849234  0.09425854  0.41429674    -0.76300
Al203      Al  0.19404168  0.05583254  0.39861434     1.49000
C204        C  0.16297065  0.10160165  0.41080704     0.91000
O205        O  0.16882552  0.11619571  0.34858361    -0.82500
O206        O  0.19055762  0.04132310  0.32405769    -0.76100
Al207      Al  0.14477586  0.06703466  0.36106214     1.90100
O208        O  0.21262852  0.11530422  0.32737866    -0.75100
O209        O  0.24067144  0.05159965  0.35741371    -0.75000
O210        O  0.25553580  0.12298993  0.36576472    -0.80600
O211        O  0.20066726  0.01607718  0.38545920    -0.78800
O212        O  0.18649639  0.06801768  0.36835951    -1.15000
O213        O  0.14489026  0.02073659  0.40593704    -0.74200
C214        C  0.11547500  0.00561198  0.39380606     0.96500
C215        C  0.19398417  0.13041115  0.33251424     0.92900
Al216      Al  0.22190306  0.08167147  0.34552527     1.55600
O217        O  0.14181866  0.08838098  0.39216261    -0.78800
C218        C  0.22594018  0.02213975  0.36992421     0.97100
C219        C  0.15809909  0.03235988  0.31766212     0.92000
O220        O  0.14053098  0.04564089  0.32873466    -0.84100
O221        O  0.09047288  0.49540638  0.61877521    -0.83600
C222        C  0.15830912  0.41367211  0.60903817     0.95800
O223        O  0.15012661  0.43377432  0.59654959    -0.72700
O224        O  0.10157695  0.45228947  0.58636022    -0.76300
Al225      Al  0.14801481  0.47557940  0.60477304     1.49000
C226        C  0.06949996  0.42633575  0.59233333     0.91000
O227        O  0.06474775  0.41437615  0.66391156    -0.82500
O228        O  0.13576870  0.46564346  0.68414107    -0.76100
Al229      Al  0.08381638  0.45525579  0.64054425     1.90100
O230        O  0.10459612  0.39585457  0.66061101    -0.75100
O231        O  0.19248529  0.48513416  0.65581788    -0.75000
O232        O  0.16169909  0.41709295  0.63249978    -0.80600
O233        O  0.19827177  0.50120264  0.61674940    -0.78800
O234        O  0.12655904  0.45752137  0.63389285    -1.15000
O235        O  0.14868784  0.52053714  0.60966445    -0.74200
C236        C  0.11954326  0.02193648  0.60970036     0.96500
C237        C  0.07368742  0.39000690  0.66752200     0.92900
Al238      Al  0.14687563  0.44217481  0.65639620     1.55600
O239        O  0.05982402  0.41994888  0.61491854    -0.78800
C240        C  0.21204654  0.50413908  0.63806923     0.97100
C241        C  0.12529472  0.48955348  0.68371950     0.92000
O242        O  0.10607504  0.49060516  0.66603216    -0.84100
O243        O  0.10454763  0.14194277  0.53928838    -0.83600
C244        C  0.16054235  0.29528489  0.55536516     0.95800
O245        O  0.17010441  0.27518135  0.56679304    -0.72700
O246        O  0.10940619  0.21697280  0.58263480    -0.76300
Al247      Al  0.15240960  0.22362315  0.56501681     1.49000
C248        C  0.07599338  0.19251830  0.57919721     0.91000
O249        O  0.06456153  0.20077616  0.51670957    -0.82500
O250        O  0.15879618  0.22023708  0.49031906    -0.76100
Al251      Al  0.08864598  0.17512061  0.52823849     1.90100
O252        O  0.10923653  0.24470741  0.49571222    -0.75100
O253        O  0.20109367  0.27060227  0.52286007    -0.75000
O254        O  0.14766853  0.28703421  0.53348181    -0.80600
O255        O  0.19810606  0.23116644  0.55059199    -0.78800
O256        O  0.13082041  0.21662230  0.53533850    -1.15000
O257        O  0.13953668  0.17420908  0.57038697    -0.74200
C258        C  0.12209540  0.14415761  0.55878656     0.96500
C259        C  0.07581233  0.22701348  0.50144260     0.92900
Al260      Al  0.15218917  0.25235166  0.51255573     1.55600
O261        O  0.06614893  0.17277883  0.55968971    -0.78800
C262        C  0.21642110  0.25635660  0.53486548     0.97100
C263        C  0.13512721  0.18744603  0.48410196     0.92000
O264        O  0.10443148  0.17005938  0.49533815    -0.84100
C265        C  0.15271552  0.08665290  0.59387980    -0.15100
C266        C  0.11942201  0.05330265  0.59720708     0.07000
C267        C  0.08716606  0.04915725  0.58629435    -0.15100
C268        C  0.08830326  0.07799264  0.57230302    -0.15100
C269        C  0.12156686  0.11149898  0.56944836     0.07000
C270        C  0.15367194  0.11559082  0.58041398    -0.15100
H271        H  0.17804824  0.09046292  0.60187067     0.11000
H272        H  0.06127916  0.02346023  0.58823815     0.11000
H273        H  0.06306067  0.07466245  0.56448851     0.11000
H274        H  0.17950011  0.14143913  0.57874639     0.11000
C275        C  0.15582417  0.38126524  0.56947840    -0.15100
C276        C  0.16279381  0.38549903  0.59528321     0.07000
C277        C  0.17195124  0.36159903  0.60740050    -0.15100
C278        C  0.17266207  0.33310279  0.59408248    -0.15100
C279        C  0.16391827  0.32790208  0.56851462     0.07000
C280        C  0.15623291  0.35269600  0.55626561    -0.15100
H281        H  0.14887112  0.39940617  0.55947461     0.11000
H282        H  0.17761351  0.36432933  0.62716906     0.11000
H283        H  0.17883375  0.31435391  0.60404638     0.11000
H284        H  0.14964133  0.34948584  0.53662774     0.11000
C285        C  0.12283845  0.12421693  0.42952833    -0.15100
C286        C  0.15694627  0.12537752  0.42880543     0.07000
C287        C  0.18464884  0.14909181  0.44550411    -0.15100
C288        C  0.17815548  0.17070753  0.46270973    -0.15100
C289        C  0.14353108  0.16830940  0.46397164     0.07000
C290        C  0.11605685  0.14498890  0.44714258    -0.15100
H291        H  0.10093771  0.10637999  0.41690565     0.11000
H292        H  0.21129428  0.15084216  0.44531948     0.11000
H293        H  0.19969156  0.18822270  0.47566674     0.11000
H294        H  0.08915423  0.14263268  0.44774933     0.11000
C295        C  0.51423864  0.36768159  0.57752499    -0.15100
C296        C  0.04263800  0.40413656  0.57274556     0.07000
C297        C  0.04456101  0.41954507  0.54928487    -0.15100
C298        C  0.51807719  0.39932626  0.53118593    -0.15100
C299        C  0.48975140  0.36292515  0.53593121     0.07000
C300        C  0.48832138  0.34700091  0.55909156    -0.15100
H301        H  0.51223588  0.35514954  0.59546997     0.11000
H302        H  0.06603405  0.44758809  0.54514188     0.11000
H303        H  0.51982585  0.41204028  0.51333886     0.11000
H304        H  0.46666850  0.31900052  0.56311411     0.11000
C305        C  0.07855738  0.47387342  0.43137714    -0.15100
C306        C  0.08292123  0.47454090  0.40536191     0.07000
C307        C  0.05643321  0.94539303  0.39095521    -0.15100
C308        C  0.02651919  0.41549632  0.40246237    -0.15100
C309        C  0.02212047  0.41471098  0.42849160     0.07000
C310        C  0.04813600  0.44438720  0.44285080    -0.15100
H311        H  0.09862416  0.49638462  0.44283492     0.11000
H312        H  0.05929864  0.94537690  0.37092702     0.11000
H313        H  0.50659337  0.39300276  0.39093033     0.11000
H314        H  0.04532009  0.44442587  0.46288157     0.11000
C315        C  0.31562949  0.17823659  0.44298188    -0.15100
C316        C  0.34815470  0.20501516  0.43175406     0.07000
C317        C  0.35184716  0.20478451  0.40564122    -0.15100
C318        C  0.32376495  0.17771070  0.39103312    -0.15100
C319        C  0.29189372  0.15016334  0.40240519     0.07000
C320        C  0.28783950  0.15082312  0.42841574    -0.15100
H321        H  0.31195914  0.17813344  0.46292905     0.11000
H322        H  0.37650726  0.22567884  0.39642276     0.11000
H323        H  0.32733382  0.17769976  0.37107768     0.11000
H324        H  0.26306533  0.12993794  0.43754505     0.11000
C325        C  0.03884262  0.28245220  0.46835162    -0.15100
C326        C  0.50088419  0.26041602  0.47262384     0.07000
C327        C  0.48784624  0.22646292  0.48515679    -0.15100
C328        C  0.51203849  0.21536036  0.49397002    -0.15100
C329        C  0.05005723  0.23775672  0.49044827     0.07000
C330        C  0.06322832  0.27122614  0.47719164    -0.15100
H331        H  0.04974601  0.30889568  0.45905383     0.11000
H332        H  0.45871576  0.20865324  0.48870866     0.11000
H333        H  0.50093031  0.18941750  0.50394283     0.11000
H334        H  0.09247929  0.28924596  0.47426925     0.11000
C335        C  0.30871691  0.26147042  0.52623852    -0.15100
C336        C  0.32765706  0.29361096  0.51148599     0.07000
C337        C  0.31082238  0.31457411  0.50658672    -0.15100
C338        C  0.27546236  0.30308742  0.51540816    -0.15100
C339        C  0.25577818  0.27015815  0.52924867     0.07000
C340        C  0.27305832  0.24983148  0.53504541    -0.15100
H341        H  0.32100181  0.24463206  0.53033283     0.11000
H342        H  0.32462471  0.33944825  0.49542798     0.11000
H343        H  0.26307979  0.31964792  0.51071548     0.11000
H344        H  0.25855208  0.22430793  0.54548537     0.11000
C345        C  0.04628564  0.21511740  0.61038200    -0.15100
C346        C  0.04746666  0.18580223  0.59816716     0.07000
C347        C  0.51990663  0.14928305  0.60341260    -0.15100
C348        C  0.49205350  0.14207334  0.62067534    -0.15100
C349        C  0.49030133  0.17123361  0.63267660     0.07000
C350        C  0.51768599  0.20791669  0.62723252    -0.15100
H351        H  0.06706658  0.24354206  0.60654825     0.11000
H352        H  0.52020616  0.12616212  0.59432665     0.11000
H353        H  0.47169543  0.11352216  0.62457182     0.11000
H354        H  0.51745589  0.23098693  0.63643529     0.11000
C355        C  0.03746654  0.29607798  0.69804862    -0.15100
C356        C  0.49955458  0.28298107  0.69859780     0.07000
C357        C  0.48650632  0.30655543  0.69089289    -0.15100
C358        C  0.51067228  0.34196842  0.68176614    -0.15100
C359        C  0.04836259  0.35433020  0.67977433     0.07000
C360        C  0.06164629  0.33136193  0.68854841    -0.15100
H361        H  0.04812987  0.27830794  0.70358047     0.11000
H362        H  0.45728932  0.29701710  0.69112192     0.11000
H363        H  0.49964900  0.35899165  0.67526526     0.11000
H364        H  0.09068150  0.34028735  0.68744640     0.11000
C365        C  0.30489714  0.54080388  0.66791305    -0.15100
C366        C  0.32518576  0.07647770  0.65786787     0.07000
C367        C  0.30867019  0.08752887  0.63957472    -0.15100
C368        C  0.27219527  0.06358166  0.63203098    -0.15100
C369        C  0.25165207  0.52860997  0.64302490     0.07000
C370        C  0.26857903  0.51730800  0.66069526    -0.15100
H371        H  0.31664925  0.53141403  0.68204719     0.11000
H372        H  0.32362927  0.11495942  0.63155498     0.11000
H373        H  0.25961338  0.07291172  0.61847440     0.11000
H374        H  0.25337563  0.49029260  0.66931990     0.11000
C375        C  0.15182276  0.55530531  0.69612577    -0.15100
C376        C  0.13678931  0.51814279  0.70328218     0.07000
C377        C  0.13146453  0.00917647  0.72861968    -0.15100
C378        C  0.13941885  0.03695093  0.74645021    -0.15100
C379        C  0.15388563  0.07413721  0.73917325     0.07000
C380        C  0.16081383  0.08309878  0.71390109    -0.15100
H381        H  0.15632324  0.56277493  0.67663510     0.11000
H382        H  0.11986241  0.98065658  0.73448487     0.11000
H383        H  0.13401005  0.02938987  0.76588612     0.11000
H384        H  0.17182100  0.11143358  0.70778533     0.11000
C385        C  0.04860273  0.15132942  0.72467705    -0.15100
C386        C  0.01907122  0.14748365  0.73903385     0.07000
C387        C  0.51985083  0.14416720  0.76502165    -0.15100
C388        C  0.04986492  0.14483990  0.77658613    -0.15100
C389        C  0.07993915  0.14974753  0.76235791     0.07000
C390        C  0.07905196  0.15290715  0.73629861    -0.15100
H391        H  0.04852302  0.15408491  0.70465624     0.11000
H392        H  0.49707046  0.14095088  0.77639680     0.11000
H393        H  0.04986318  0.14220149  0.79661586     0.11000
H394        H  0.10184766  0.15632636  0.72486246     0.11000
C395        C  0.28797260  0.18398237  0.73953526    -0.15100
C396        C  0.28931287  0.18418864  0.76579575     0.07000
C397        C  0.31858676  0.18333392  0.77745731    -0.15100
C398        C  0.34666792  0.18370126  0.76313577    -0.15100
C399        C  0.34565583  0.18421790  0.73688016     0.07000
C400        C  0.31569678  0.18367309  0.72522076    -0.15100
H401        H  0.26530227  0.18397771  0.72998301     0.11000
H402        H  0.32015105  0.18314973  0.79755729     0.11000
H403        H  0.36922419  0.18343779  0.77265915     0.11000
H404        H  0.31406101  0.18372655  0.70511978     0.11000
C405        C  0.33978998  0.44445368  0.11278843    -0.15100
C406        C  0.34330766  0.47399620  0.09855277     0.07000
C407        C  0.34811804  0.47386719  0.07264749    -0.15100
C408        C  0.34874263  0.44422476  0.06100781    -0.15100
C409        C  0.34369792  0.41391021  0.07506736     0.07000
C410        C  0.33956171  0.41437198  0.10107600    -0.15100
H411        H  0.33619905  0.44418153  0.13276569     0.11000
H412        H  0.35140819  0.99680151  0.06139339     0.11000
H413        H  0.35224741  0.44458564  0.04101898     0.11000
H414        H  0.33615668  0.39143399  0.11236696     0.11000
C415        C  0.30466597  0.17748278  0.11110481    -0.15100
C416        C  0.30756579  0.14880910  0.09983034     0.07000
C417        C  0.31066743  0.14819753  0.07370437    -0.15100
C418        C  0.31038906  0.17554207  0.05901900    -0.15100
C419        C  0.30632203  0.20360144  0.07019285     0.07000
C420        C  0.30371050  0.20446487  0.09639028    -0.15100
H421        H  0.30232890  0.17855258  0.13112920     0.11000
H422        H  0.31342660  0.12647025  0.06457514     0.11000
H423        H  0.31278650  0.17444018  0.03900791     0.11000
H424        H  0.30113969  0.22624724  0.10559621     0.11000
C425        C  0.47411019  0.37993108  0.11875636    -0.15100
C426        C  0.97302613  0.35054081  0.13209738     0.07000
C427        C  0.94366773  0.31434784  0.12773994    -0.15100
C428        C  0.41555557  0.30797425  0.11079440    -0.15100
C429        C  0.41687628  0.33755223  0.09746464     0.07000
C430        C  0.44671988  0.37347236  0.10145642    -0.15100
H431        H  0.49620003  0.40812070  0.12179543     0.11000
H432        H  0.94185860  0.29123067  0.13800923     0.11000
H433        H  0.39297689  0.27997061  0.10796787     0.11000
H434        H  0.44846620  0.39683466  0.09153321     0.11000
C435        C  0.97587923  0.21778375  0.18701290    -0.15100
C436        C  0.46308628  0.23940292  0.19890867     0.07000
C437        C  0.42525689  0.22388236  0.20321922    -0.15100
C438        C  0.40055722  0.18809319  0.19448489    -0.15100
C439        C  0.41340517  0.16742969  0.18129468     0.07000
C440        C  0.45135772  0.18231515  0.17825266    -0.15100
H441        H  0.00499439  0.22885786  0.18363896     0.11000
H442        H  0.41469005  0.24001079  0.21217580     0.11000
H443        H  0.37133952  0.17722036  0.19714122     0.11000
H444        H  0.46211391  0.16695631  0.16846502     0.11000
C445        C  0.19044464  0.45774273  0.13263301    -0.15100
C446        C  0.20801595  0.99531712  0.13943267     0.07000
C447        C  0.18845610  0.00784034  0.15414292    -0.15100
C448        C  0.15302958  0.98344880  0.16267469    -0.15100
C449        C  0.13580090  0.44569945  0.15668695     0.07000
C450        C  0.15461132  0.43312827  0.14118829    -0.15100
H451        H  0.20478869  0.44720115  0.12150194     0.11000
H452        H  0.20092397  0.03664794  0.15971878     0.11000
H453        H  0.13945499  0.99413090  0.17447929     0.11000
H454        H  0.14205667  0.40407304  0.13627059     0.11000
C455        C  0.11791503  0.94459060  0.27881176    -0.15100
C456        C  0.09449241  0.44979625  0.26274643     0.07000
C457        C  0.09474398  0.48361871  0.26365587    -0.15100
C458        C  0.11653771  0.01091531  0.28097015    -0.15100
C459        C  0.13932335  0.00548053  0.29733822     0.07000
C460        C  0.14048523  0.97242923  0.29581162    -0.15100
H461        H  0.11856865  0.91894797  0.27835358     0.11000
H462        H  0.07718968  0.48858079  0.25147063     0.11000
H463        H  0.11515767  0.03616122  0.28187409     0.11000
H464        H  0.15756604  0.96750277  0.30848497     0.11000
C465        C  0.32022330  0.31335680  0.37461326    -0.15100
C466        C  0.32572483  0.34916963  0.37072464     0.07000
C467        C  0.35312217  0.37881435  0.38453391    -0.15100
C468        C  0.37491793  0.37312667  0.40151295    -0.15100
C469        C  0.37059700  0.33772071  0.40475990     0.07000
C470        C  0.34280149  0.30776711  0.39128215    -0.15100
H471        H  0.29952858  0.29005067  0.36406313     0.11000
H472        H  0.35806304  0.40671855  0.38194328     0.11000
H473        H  0.39590841  0.39673426  0.41168888     0.11000
H474        H  0.33850510  0.28007099  0.39367853     0.11000
C475        C  0.27739258  0.44584057  0.22451557    -0.15100
C476        C  0.30600680  0.44976517  0.24012623     0.07000
C477        C  0.34018724  0.98280012  0.23894170    -0.15100
C478        C  0.34619842  0.01041696  0.22179562    -0.15100
C479        C  0.31793305  0.00625908  0.20586654     0.07000
C480        C  0.28317770  0.97403466  0.20773902    -0.15100
H481        H  0.25062592  0.42089677  0.22518027     0.11000
H482        H  0.36273842  0.98684288  0.25077084     0.11000
H483        H  0.37324481  0.03493894  0.22071965     0.11000
H484        H  0.26102276  0.96997340  0.19549176     0.11000
C485        C  0.40949925  0.37455006  0.27735928    -0.15100
C486        C  0.38112081  0.37286414  0.26279380     0.07000
C487        C  0.38386538  0.37243769  0.23667327    -0.15100
C488        C  0.41439898  0.37357164  0.22529478    -0.15100
C489        C  0.44226928  0.37422493  0.23986175     0.07000
C490        C  0.43960266  0.37477036  0.26598173    -0.15100
H491        H  0.40806466  0.37499993  0.29747112     0.11000
H492        H  0.36244415  0.37153269  0.22499883     0.11000
H493        H  0.41584176  0.37310669  0.20518498     0.11000
H494        H  0.46100278  0.37557996  0.27763405     0.11000
C495        C  0.14309715  0.34050703  0.27704309    -0.15100
C496        C  0.17163857  0.33810531  0.26541125     0.07000
C497        C  0.17272408  0.33696101  0.23916802    -0.15100
C498        C  0.14539099  0.33751585  0.22481389    -0.15100
C499        C  0.11618210  0.33857802  0.23647539     0.07000
C500        C  0.11541191  0.34041828  0.26268611    -0.15100
H501        H  0.14183175  0.34176819  0.29712460     0.11000
H502        H  0.19488425  0.33575016  0.22965195     0.11000
H503        H  0.14666742  0.33631909  0.20472805     0.11000
H504        H  0.09333267  0.34187756  0.27212906     0.11000
C505        C  0.24302725  0.21943814  0.29473715    -0.15100
C506        C  0.22405172  0.23747093  0.30255360     0.07000
C507        C  0.19263067  0.21797303  0.31769550    -0.15100
C508        C  0.18210338  0.18268929  0.32643570    -0.15100
C509        C  0.20247824  0.16558650  0.32020056     0.07000
C510        C  0.23228598  0.18369111  0.30349719    -0.15100
H511        H  0.26710000  0.23357106  0.28294952     0.11000
H512        H  0.17681895  0.23062861  0.32378061     0.11000
H513        H  0.15873408  0.16941775  0.33891006     0.11000
H514        H  0.24825782  0.17092469  0.29806278     0.11000
C515        C  0.22837008  0.43270345  0.36165866    -0.15100
C516        C  0.26065728  0.44517597  0.34729677     0.07000
C517        C  0.28305939  0.98329339  0.34326372    -0.15100
C518        C  0.27252825  0.00813371  0.35209647    -0.15100
C519        C  0.23916863  0.99563451  0.36511718     0.07000
C520        C  0.21769097  0.45773816  0.37049174    -0.15100
H521        H  0.21056690  0.40341866  0.36520683     0.11000
H522        H  0.30825193  0.99390525  0.33258281     0.11000
H523        H  0.29004689  0.03724953  0.34785920     0.11000
H524        H  0.19187990  0.44728234  0.38039805     0.11000
C525        C  0.35505320  0.55667358  0.80738678    -0.15100
C526        C  0.32914734  0.52020197  0.80036770     0.07000
C527        C  0.32238158  0.01140071  0.77498051    -0.15100
C528        C  0.34283028  0.03831189  0.75694621    -0.15100
C529        C  0.36931846  0.07461514  0.76410516     0.07000
C530        C  0.37449726  0.08372042  0.78946807    -0.15100
H531        H  0.36053534  0.56415992  0.82688136     0.11000
H532        H  0.30252584  0.48348671  0.76916069     0.11000
H533        H  0.33816297  0.03076834  0.73743205     0.11000
H534        H  0.39469604  0.11143522  0.79546090     0.11000
C535        C  0.19430293  0.51756926  0.84586992    -0.15100
C536        C  0.22302460  0.52938657  0.86324781     0.07000
C537        C  0.23753225  0.06463004  0.87409103    -0.15100
C538        C  0.22545125  0.08874533  0.86604197    -0.15100
C539        C  0.19838282  0.07762010  0.84734499     0.07000
C540        C  0.18196737  0.54126882  0.83812251    -0.15100
H541        H  0.18221056  0.49021356  0.83752940     0.11000
H542        H  0.25956149  0.07423318  0.88759621     0.11000
H543        H  0.23832207  0.11654471  0.87369190     0.11000
H544        H  0.16086779  0.53167607  0.82392150     0.11000
C545        C  0.20824039  0.29691148  0.80500267    -0.15100
C546        C  0.23379866  0.28461499  0.80442378     0.07000
C547        C  0.27006820  0.30882105  0.81242930    -0.15100
C548        C  0.28035836  0.34417548  0.82156491    -0.15100
C549        C  0.25441284  0.35590155  0.82334949     0.07000
C550        C  0.21837065  0.33213260  0.81457696    -0.15100
H551        H  0.18001046  0.27860557  0.79932531     0.11000
H552        H  0.29028949  0.29992112  0.81228959     0.11000
H553        H  0.30825077  0.36174920  0.82814871     0.11000
H554        H  0.19775171  0.34045040  0.81562532     0.11000
C555        C  0.29659830  0.36672672  0.92636139    -0.15100
C556        C  0.31002851  0.40488420  0.93006311     0.07000
C557        C  0.32862027  0.42147725  0.95222963    -0.15100
C558        C  0.33471690  0.40075537  0.96998764    -0.15100
C559        C  0.32150499  0.36264075  0.96638765     0.07000
C560        C  0.30173538  0.34561691  0.94457199    -0.15100
H561        H  0.28194514  0.35323415  0.90944295     0.11000
H562        H  0.33932088  0.45077637  0.95554023     0.11000
H563        H  0.34970021  0.41460894  0.98673547     0.11000
H564        H  0.29113710  0.31633164  0.94133953     0.11000
C565        C  0.47802089  0.14329502  0.05447754    -0.15100
C566        C  0.97387672  0.16749432  0.03849109     0.07000
C567        C  0.94180451  0.17008129  0.04051368    -0.15100
C568        C  0.41401056  0.14807269  0.05764834    -0.15100
C569        C  0.41809927  0.12371421  0.07360105     0.07000
C570        C  0.45078595  0.12212305  0.07205702    -0.15100
H571        H  0.50236950  0.14062303  0.05327858     0.11000
H572        H  0.93766109  0.18814082  0.02821686     0.11000
H573        H  0.38931280  0.15015920  0.05844253     0.11000
H574        H  0.45491763  0.10375673  0.08404677     0.11000
C575        C  0.08589684  0.15214251  0.90213915    -0.15100
C576        C  0.09155343  0.18802105  0.90583604     0.07000
C577        C  0.11940940  0.21745531  0.89216360    -0.15100
C578        C  0.14102538  0.21097514  0.87504214    -0.15100
C579        C  0.13444704  0.17481094  0.87083955     0.07000
C580        C  0.10670534  0.14555330  0.88463354    -0.15100
H581        H  0.06465654  0.12892175  0.91239215     0.11000
H582        H  0.12455174  0.24543110  0.89481669     0.11000
H583        H  0.16195032  0.23396867  0.86445702     0.11000
H584        H  0.10091076  0.11739127  0.88173611     0.11000
C585        C  0.43913140  0.07974611  0.92966051    -0.15100
C586        C  0.44083787  0.11413351  0.93149744     0.07000
C587        C  0.41373339  0.11909448  0.91987958    -0.15100
C588        C  0.38486623  0.08986661  0.90704756    -0.15100
C589        C  0.38322258  0.05549502  0.90497112     0.07000
C590        C  0.41070229  0.05069827  0.91623462    -0.15100
H591        H  0.96033891  0.07573156  0.93798750     0.11000
H592        H  0.41494606  0.14565537  0.92077046     0.11000
H593        H  0.36386418  0.09414989  0.89865425     0.11000
H594        H  0.40968355  0.02425108  0.91515330     0.11000
C595        C  0.11008349  0.33647823  0.91098676    -0.15100
C596        C  0.11493696  0.32943262  0.93594901     0.07000
C597        C  0.14871054  0.35205685  0.94757689    -0.15100
C598        C  0.17744489  0.38044498  0.93431614    -0.15100
C599        C  0.17306580  0.38666240  0.90909986     0.07000
C600        C  0.13895555  0.36475602  0.89764381    -0.15100
H601        H  0.08420218  0.31944545  0.90145908     0.11000
H602        H  0.15323946  0.34723429  0.96667464     0.11000
H603        H  0.20352702  0.39692330  0.94374576     0.11000
H604        H  0.13478904  0.36905358  0.87835373     0.11000
C605        C  0.42696024  0.24989871  0.96570995    -0.15100
C606        C  0.46480723  0.27216644  0.96999287     0.07000
C607        C  0.47800990  0.30710477  0.98138204    -0.15100
C608        C  0.45369986  0.31819403  0.99026120    -0.15100
C609        C  0.41562400  0.29465468  0.98785594     0.07000
C610        C  0.40254437  0.26104004  0.97458763    -0.15100
H611        H  0.41609267  0.22293166  0.95696726     0.11000
H612        H  0.50721836  0.32519158  0.98452473     0.11000
H613        H  0.46467055  0.34452767  0.99990110     0.11000
H614        H  0.37328509  0.24242206  0.97216451     0.11000
C615        C  0.15515577  0.21883646  0.00432658    -0.15100
C616        C  0.13670657  0.23706390  0.01265737     0.07000
C617        C  0.15446844  0.26613065  0.03017637    -0.15100
C618        C  0.19038614  0.27731553  0.03850765    -0.15100
C619        C  0.20914808  0.25967617  0.02939112     0.07000
C620        C  0.19063793  0.22988773  0.01254159    -0.15100
H621        H  0.14251062  0.19642343  0.99089610     0.11000
H622        H  0.14093786  0.28076107  0.03700346     0.11000
H623        H  0.20377486  0.30029935  0.05144452     0.11000
H624        H  0.20389899  0.21531716  0.00510796     0.11000
O625        O  0.98718059  0.64364275  0.96248878    -0.83600
C626        C  0.08552544  0.79678491  0.94870866     0.95800
O627        O  0.05657047  0.77673444  0.93662122    -0.72700
O628        O  0.06054381  0.71927614  0.92090795    -0.76300
Al629      Al  0.02319050  0.72541853  0.93731197     1.49000
C630        C  0.06855021  0.69410394  0.92419283     0.91000
O631        O  0.08527287  0.70089183  0.98622609    -0.82500
O632        O  0.00994746  0.71999730  0.01242889    -0.76100
Al633      Al  0.03603228  0.67574495  0.97419567     1.90100
O634        O  0.08448586  0.74469904  0.00787459    -0.75100
O635        O  0.01830607  0.77089323  0.97997385    -0.75000
O636        O  0.08920871  0.78831502  0.97070941    -0.80600
O637        O  0.98455935  0.73291952  0.95035011    -0.78800
O638        O  0.03594146  0.71763658  0.96741692    -1.15000
O639        O  0.48708318  0.67616163  0.93076409    -0.74200
C640        C  0.47313821  0.64623685  0.94246657     0.96500
C641        C  0.10017355  0.72685799  0.00186345     0.92900
Al642      Al  0.04927422  0.75280358  0.99076885     1.55600
O643        O  0.05671254  0.67327238  0.94299663    -0.78800
C644        C  0.99033923  0.75781675  0.96621847     0.97100
C645        C  0.00121005  0.68721018  0.01838161     0.92000
O646        O  0.01486143  0.67022416  0.00691001    -0.84100
O647        O  0.35306829  0.99688826  0.88431316    -0.83600
C648        C  0.20488479  0.91519331  0.89522201     0.95800
O649        O  0.23326027  0.93560083  0.90758355    -0.72700
O650        O  0.30045977  0.95424165  0.91710121    -0.76300
Al651      Al  0.27654986  0.97746991  0.89932227     1.49000
C652        C  0.30560242  0.92763273  0.91074744     0.91000
O653        O  0.29738273  0.91618327  0.83910861    -0.82500
O654        O  0.27714347  0.96865767  0.81976556    -0.76100
Al655      Al  0.31929268  0.95681325  0.86263966     1.90100
O656        O  0.23918947  0.89792181  0.84206422    -0.75100
O657        O  0.23982339  0.98700615  0.84927205    -0.75000
O658        O  0.20410930  0.91864765  0.87180051    -0.80600
O659        O  0.25105774  0.00284830  0.88840533    -0.78800
O660        O  0.27916666  0.95941094  0.86980631    -1.15000
O661        O  0.32050769  0.02255969  0.89422526    -0.74200
C662        C  0.35099172  0.52383352  0.89338079     0.96500
C663        C  0.26424641  0.89185037  0.83536085     0.92900
Al664      Al  0.24311346  0.94431030  0.84757182     1.55600
O665        O  0.30823880  0.92116990  0.88801975    -0.78800
C666        C  0.23921537  0.00557372  0.86743187     0.97100
C667        C  0.31166272  0.99186514  0.81998535     0.92000
O668        O  0.33202565  0.99220354  0.83738937    -0.84100
O669        O  0.35027402  0.88573750  0.29538456    -0.83600
C670        C  0.20076702  0.83684980  0.27982326     0.95800
O671        O  0.21876469  0.82429842  0.26888002    -0.72700
O672        O  0.27536810  0.88678895  0.25401462    -0.76300
Al673      Al  0.26993668  0.84290120  0.26939666     1.49000
C674        C  0.30075700  0.91994178  0.25762288     0.91000
O675        O  0.29550626  0.92964647  0.31960428    -0.82500
O676        O  0.27369838  0.83321463  0.34431621    -0.76100
Al677      Al  0.31942243  0.90428486  0.30706682     1.90100
O678        O  0.25119031  0.88478175  0.34040312    -0.75100
O679        O  0.22377463  0.79247450  0.31072703    -0.75000
O680        O  0.20838857  0.84837978  0.30211264    -0.80600
O681        O  0.26309126  0.79644547  0.28225355    -0.78800
O682        O  0.27759935  0.86308345  0.29973762    -1.15000
O683        O  0.31917969  0.85724773  0.26208993    -0.74200
C684        C  0.34858020  0.87167547  0.27427230     0.96500
C685        C  0.26982153  0.91862050  0.33528565     0.92900
Al686      Al  0.24221267  0.84149519  0.32253146     1.55600
O687        O  0.32233147  0.92819309  0.27601387    -0.78800
C688        C  0.23791056  0.77740457  0.29788684     0.97100
C689        C  0.30636629  0.85688754  0.35057047     0.92000
O690        O  0.32382010  0.88765563  0.33938850    -0.84100
O691        O  0.98617088  0.88766894  0.20737111    -0.83600
C692        C  0.08585810  0.83732539  0.22207583     0.95800
O693        O  0.05530314  0.82466969  0.23287245    -0.72700
O694        O  0.06168861  0.88716857  0.24837146    -0.76300
Al695      Al  0.02318155  0.84396283  0.23266707     1.49000
C696        C  0.06973019  0.92043064  0.24508833     0.91000
O697        O  0.08469913  0.93067652  0.18342510    -0.82500
O698        O  0.00974431  0.83484560  0.15786334    -0.76100
Al699      Al  0.03544007  0.90577711  0.19569786     1.90100
O700        O  0.08379610  0.88579993  0.16202241    -0.75100
O701        O  0.01859139  0.79355989  0.19088369    -0.75000
O702        O  0.08983943  0.84896654  0.19989367    -0.80600
O703        O  0.98347193  0.79831677  0.21927106    -0.78800
O704        O  0.03578402  0.86433097  0.20255548    -1.15000
O705        O  0.48880428  0.85892573  0.24037176    -0.74200
C706        C  0.47383871  0.87348475  0.22837047     0.96500
C707        C  0.09946184  0.91950398  0.16781123     0.92900
Al708      Al  0.04934742  0.84258905  0.17951265     1.55600
O709        O  0.05653880  0.92917004  0.22690113    -0.78800
C710        C  0.98940089  0.77904774  0.20356663     0.97100
C711        C  0.00061105  0.85855955  0.15197076     0.92000
O712        O  0.01422577  0.88945829  0.16325246    -0.84100
O713        O  0.35498860  0.51741262  0.13106070    -0.83600
C714        C  0.30644372  0.61854277  0.11443951     0.95800
O715        O  0.29395867  0.58766242  0.10369624    -0.72700
O716        O  0.35581033  0.59259123  0.08851042    -0.76300
Al717      Al  0.31225514  0.55459304  0.10454965     1.49000
C718        C  0.38874948  0.60007922  0.09180588     0.91000
O719        O  0.39846113  0.61693113  0.15377106    -0.82500
O720        O  0.30255354  0.54226360  0.17911982    -0.76100
Al721      Al  0.37344959  0.56723169  0.14199171     1.90100
O722        O  0.35383998  0.61621781  0.17498856    -0.75100
O723        O  0.26227329  0.55177745  0.14576751    -0.75000
O724        O  0.31795494  0.62284490  0.13669384    -0.80600
O725        O  0.26621213  0.51510493  0.11815574    -0.78800
O726        O  0.33248541  0.56784895  0.13464284    -1.15000
O727        O  0.32657563  0.51946524  0.09770738    -0.74200
C728        C  0.34123924  0.50487823  0.10999998     0.96500
C729        C  0.38736501  0.63158478  0.16952814     0.92900
Al730      Al  0.31097207  0.58210684  0.15731703     1.55600
O731        O  0.39711991  0.58734680  0.11048677    -0.78800
C732        C  0.24741280  0.52167518  0.13382643     0.97100
C733        C  0.32615155  0.53345670  0.18567137     0.92000
O734        O  0.35704403  0.54698292  0.17473570    -0.84100
O735        O  0.35751350  0.88416792  0.04233374    -0.83600
C736        C  0.30531603  0.73270667  0.05534542     0.95800
O737        O  0.29219970  0.75062083  0.06565050    -0.72700
O738        O  0.35479851  0.80663558  0.08219008    -0.76300
Al739      Al  0.31197415  0.80224722  0.06580922     1.49000
C740        C  0.38808948  0.83184438  0.07910028     0.91000
O741        O  0.40050198  0.82999599  0.01572296    -0.82500
O742        O  0.30671375  0.80800400  0.99001270    -0.76100
Al743      Al  0.37495325  0.85306214  0.02962090     1.90100
O744        O  0.35582833  0.78375760  0.99604249    -0.75100
O745        O  0.26355860  0.75800405  0.02289432    -0.75000
O746        O  0.31777935  0.74061071  0.03333679    -0.80600
O747        O  0.26678167  0.79683724  0.05179732    -0.78800
O748        O  0.33351012  0.81075741  0.03586443    -1.15000
O749        O  0.32655349  0.85128590  0.07419700    -0.74200
C750        C  0.34244660  0.88156242  0.06304202     0.96500
C751        C  0.38949494  0.80364231  0.00038068     0.92900
Al752      Al  0.31273001  0.77555423  0.01252627     1.55600
O753        O  0.39754595  0.85337128  0.06056526    -0.78800
C754        C  0.24843996  0.77250503  0.03531541     0.97100
C755        C  0.32927268  0.84194334  0.98559667     0.92000
O756        O  0.35864629  0.85973061  0.99806706    -0.84100
O757        O  0.10980884  0.63629830  0.79491333    -0.83600
C758        C  0.25990932  0.68557744  0.78019163     0.95800
O759        O  0.24197555  0.69810902  0.76928325    -0.72700
O760        O  0.18448480  0.63650505  0.75379558    -0.76300
Al761      Al  0.19070040  0.68016122  0.76991913     1.49000
C762        C  0.15973913  0.60317180  0.75753225     0.91000
O763        O  0.16410293  0.59345613  0.82006242    -0.82500
O764        O  0.18652109  0.68987220  0.84469886    -0.76100
Al765      Al  0.14078352  0.61856033  0.80714316     1.90100
O766        O  0.20873976  0.63826396  0.84077201    -0.75100
O767        O  0.23728780  0.73100864  0.81145255    -0.75000
O768        O  0.25213239  0.67431364  0.80248169    -0.80600
O769        O  0.19724220  0.72607263  0.78348942    -0.78800
O770        O  0.18279086  0.65973841  0.80003007    -1.15000
O771        O  0.14203251  0.66655711  0.76257133    -0.74200
C772        C  0.11217873  0.65113375  0.77415018     0.96500
C773        C  0.18961402  0.60438587  0.83572690     0.92900
Al774      Al  0.21815881  0.68149343  0.82294982     1.55600
O775        O  0.13901059  0.59427862  0.77643689    -0.78800
C776        C  0.22206870  0.74534025  0.79921367     0.97100
C777        C  0.15356323  0.66659945  0.85063919     0.92000
O778        O  0.13575012  0.63594737  0.83918037    -0.84100
O779        O  0.47462780  0.63294746  0.70713396    -0.83600
C780        C  0.37617287  0.68524905  0.72241064     0.95800
O781        O  0.40669682  0.69768472  0.73325360    -0.72700
O782        O  0.40218977  0.63628865  0.74899636    -0.76300
Al783      Al  0.43951730  0.67898487  0.73251849     1.49000
C784        C  0.39271851  0.60263256  0.74547920     0.91000
O785        O  0.37677864  0.59161028  0.68352965    -0.82500
O786        O  0.45248290  0.68673276  0.65795560    -0.76100
Al787      Al  0.42570590  0.61582945  0.69555378     1.90100
O788        O  0.37817686  0.63613166  0.66191444    -0.75100
O789        O  0.44349520  0.72900447  0.69086833    -0.75000
O790        O  0.37228825  0.67360109  0.70011103    -0.80600
O791        O  0.47883792  0.72433108  0.71874687    -0.78800
O792        O  0.42613448  0.65782397  0.70254993    -1.15000
O793        O  0.47415388  0.66458520  0.73946891    -0.74200
C794        C  0.48790520  0.64850942  0.72766798     0.96500
C795        C  0.36209979  0.60263111  0.66804784     0.92900
Al796      Al  0.41275265  0.67951704  0.67956781     1.55600
O797        O  0.40380708  0.59265032  0.72661506    -0.78800
C798        C  0.47287416  0.74351748  0.70327693     0.97100
C799        C  0.46172795  0.66294788  0.65210688     0.92000
O800        O  0.44747974  0.63191648  0.66311629    -0.84100
O801        O  0.47751750  0.88523361  0.46065959    -0.83600
C802        C  0.37830115  0.73404363  0.44652630     0.95800
O803        O  0.40927223  0.75165378  0.43627571    -0.72700
O804        O  0.40280142  0.80754344  0.41969380    -0.76300
Al805      Al  0.44117890  0.80326579  0.43632577     1.49000
C806        C  0.39469076  0.83284122  0.42272922     0.91000
O807        O  0.37901274  0.82997462  0.48482912    -0.82500
O808        O  0.45156567  0.80901604  0.51169248    -0.76100
Al809      Al  0.42832849  0.85399044  0.47233751     1.90100
O810        O  0.37876322  0.78541557  0.50576714    -0.75100
O811        O  0.44479340  0.75859363  0.47901116    -0.75000
O812        O  0.37372504  0.74211603  0.46850576    -0.80600
O813        O  0.48069002  0.79786533  0.45068898    -0.78800
O814        O  0.42789893  0.81182046  0.46609828    -1.15000
O815        O  0.47579613  0.85243442  0.42848286    -0.74200
C816        C  0.49040737  0.88259192  0.44006807     0.96500
C817        C  0.36379787  0.80387281  0.50021574     0.92900
Al818      Al  0.41343455  0.77673518  0.48932461     1.55600
O819        O  0.40730534  0.85495623  0.44104508    -0.78800
C820        C  0.47449711  0.77327523  0.46686605     0.97100
C821        C  0.46191922  0.84263663  0.51654910     0.92000
O822        O  0.44985758  0.86025674  0.50441729    -0.84100
O823        O  0.11379996  0.51759783  0.37268536    -0.83600
C824        C  0.26299936  0.61943520  0.38805925     0.95800
O825        O  0.24512970  0.58891872  0.39906483    -0.72700
O826        O  0.18849332  0.59425960  0.41429624    -0.76300
Al827      Al  0.19404221  0.55583313  0.39861414     1.49000
C828        C  0.16297151  0.60160258  0.41080658     0.91000
O829        O  0.16882526  0.61619547  0.34858363    -0.82500
O830        O  0.19055854  0.54132393  0.32405732    -0.76100
Al831      Al  0.14477613  0.56703447  0.36106188     1.90100
O832        O  0.21262892  0.61530501  0.32737882    -0.75100
O833        O  0.24067175  0.55160005  0.35741352    -0.75000
O834        O  0.25553616  0.62299045  0.36576469    -0.80600
O835        O  0.20066740  0.51607755  0.38545898    -0.78800
O836        O  0.18649686  0.56801804  0.36835926    -1.15000
O837        O  0.14489065  0.52073738  0.40593708    -0.74200
C838        C  0.11547567  0.50561207  0.39380577     0.96500
C839        C  0.19398428  0.63041158  0.33251459     0.92900
Al840      Al  0.22190360  0.58167210  0.34552511     1.55600
O841        O  0.14181881  0.58838082  0.39216253    -0.78800
C842        C  0.22594009  0.52213993  0.36992382     0.97100
C843        C  0.15810002  0.53236040  0.31766163     0.92000
O844        O  0.14053148  0.54564092  0.32873420    -0.84100
O845        O  0.09047386  0.99540667  0.61877425    -0.83600
C846        C  0.15830890  0.91367166  0.60903856     0.95800
O847        O  0.15012767  0.93377459  0.59654970    -0.72700
O848        O  0.10157786  0.95228928  0.58635993    -0.76300
Al849      Al  0.14801583  0.97557964  0.60477275     1.49000
C850        C  0.06950089  0.92633563  0.59233323     0.91000
O851        O  0.06474837  0.91437792  0.66391174    -0.82500
O852        O  0.13577044  0.96564583  0.68414063    -0.76100
Al853      Al  0.08381744  0.95525682  0.64054385     1.90100
O854        O  0.10459621  0.89585569  0.66061192    -0.75100
O855        O  0.19248686  0.98513377  0.65581737    -0.75000
O856        O  0.16169814  0.91709213  0.63250021    -0.80600
O857        O  0.19827278  0.00120292  0.61674904    -0.78800
O858        O  0.12656003  0.95752206  0.63389267    -1.15000
O859        O  0.14868889  0.02053754  0.60966370    -0.74200
C860        C  0.11954229  0.52193625  0.60970134     0.96500
C861        C  0.07368758  0.89000846  0.66752264     0.92900
Al862      Al  0.14687624  0.94217542  0.65639628     1.55600
O863        O  0.05982507  0.91994926  0.61491848    -0.78800
C864        C  0.21204791  0.00413873  0.63806866     0.97100
C865        C  0.12529616  0.98955565  0.68371879     0.92000
O866        O  0.10607628  0.99060685  0.66603141    -0.84100
O867        O  0.10454818  0.64194268  0.53928825    -0.83600
C868        C  0.16054102  0.79528389  0.55536605     0.95800
O869        O  0.17010346  0.77518059  0.56679386    -0.72700
O870        O  0.10940599  0.71697133  0.58263534    -0.76300
Al871      Al  0.15240973  0.72362269  0.56501732     1.49000
C872        C  0.07599323  0.69251687  0.57919762     0.91000
O873        O  0.06456270  0.70077680  0.51671017    -0.82500
O874        O  0.15879819  0.72023835  0.49031979    -0.76100
Al875      Al  0.08864677  0.67512076  0.52823860     1.90100
O876        O  0.10923732  0.74470725  0.49571214    -0.75100
O877        O  0.20109408  0.77060368  0.52286142    -0.75000
O878        O  0.14766766  0.78703360  0.53348257    -0.80600
O879        O  0.19810655  0.73116693  0.55059249    -0.78800
O880        O  0.13082091  0.71662228  0.53533898    -1.15000
O881        O  0.13953735  0.67420869  0.57038691    -0.74200
C882        C  0.12209579  0.64415728  0.55878647     0.96500
C883        C  0.07581333  0.72701395  0.50144308     0.92900
Al884      Al  0.15218977  0.75235210  0.51255643     1.55600
O885        O  0.06614892  0.67277787  0.55968988    -0.78800
C886        C  0.21642153  0.75635758  0.53486628     0.97100
C887        C  0.13512927  0.68744752  0.48410215     0.92000
O888        O  0.10443323  0.67006058  0.49533808    -0.84100
C889        C  0.15271538  0.58665171  0.59387893    -0.15100
C890        C  0.11942128  0.55330268  0.59720815     0.07000
C891        C  0.08716477  0.54915839  0.58629708    -0.15100
C892        C  0.08830215  0.57799349  0.57230524    -0.15100
C893        C  0.12156654  0.61149841  0.56944840     0.07000
C894        C  0.15367209  0.61558932  0.58041257    -0.15100
H895        H  0.17804855  0.59046099  0.60186856     0.11000
H896        H  0.06127733  0.52346244  0.58824250     0.11000
H897        H  0.06305924  0.57466426  0.56449203     0.11000
H898        H  0.17950080  0.64143665  0.57874343     0.11000
C899        C  0.15582665  0.88126636  0.56947868    -0.15100
C900        C  0.16279297  0.88549813  0.59528389     0.07000
C901        C  0.17194629  0.86159557  0.60740189    -0.15100
C902        C  0.17265665  0.83309908  0.59408402    -0.15100
C903        C  0.16391640  0.82790061  0.56851564     0.07000
C904        C  0.15623479  0.85269675  0.55626602    -0.15100
H905        H  0.14887682  0.89940933  0.55947438     0.11000
H906        H  0.17760571  0.86432411  0.62717081     0.11000
H907        H  0.17882522  0.81434828  0.60404837     0.11000
H908        H  0.14964603  0.84948828  0.53662774     0.11000
C909        C  0.12284089  0.62422066  0.42952703    -0.15100
C910        C  0.15694792  0.62537947  0.42880469     0.07000
C911        C  0.18465028  0.64909273  0.44550389    -0.15100
C912        C  0.17815729  0.67070851  0.46270973    -0.15100
C913        C  0.14353336  0.66831158  0.46397135     0.07000
C914        C  0.11605960  0.64499267  0.44714149    -0.15100
H915        H  0.10094036  0.60638483  0.41690387     0.11000
H916        H  0.21129528  0.65084196  0.44531965     0.11000
H917        H  0.19969310  0.68822259  0.47566724     0.11000
H918        H  0.08915741  0.64263753  0.44774788     0.11000
C919        C  0.51423936  0.86768154  0.57752536    -0.15100
C920        C  0.04263865  0.90413614  0.57274566     0.07000
C921        C  0.04456083  0.91954462  0.54928511    -0.15100
C922        C  0.51807682  0.89932591  0.53118635    -0.15100
C923        C  0.48975104  0.86292485  0.53593187     0.07000
C924        C  0.48832159  0.84700074  0.55909218    -0.15100
H925        H  0.51223701  0.85514964  0.59547033     0.11000
H926        H  0.06603364  0.94758772  0.54514201     0.11000
H927        H  0.51982512  0.91203979  0.51333932     0.11000
H928        H  0.46666880  0.81900039  0.56311492     0.11000
C929        C  0.07855769  0.97387310  0.43137774    -0.15100
C930        C  0.08292063  0.97454093  0.40536240     0.07000
C931        C  0.05643449  0.44539262  0.39095461    -0.15100
C932        C  0.02651824  0.91549666  0.40246319    -0.15100
C933        C  0.02212055  0.91471081  0.42849253     0.07000
C934        C  0.04813665  0.94438679  0.44285162    -0.15100
H935        H  0.09862502  0.99638403  0.44283544     0.11000
H936        H  0.05930063  0.44537618  0.37092647     0.11000
H937        H  0.50659217  0.89300267  0.39093117     0.11000
H938        H  0.04532143  0.94442518  0.46288247     0.11000
C939        C  0.31562795  0.67823832  0.44298182    -0.15100
C940        C  0.34815469  0.70501506  0.43175448     0.07000
C941        C  0.35184865  0.70478301  0.40564184    -0.15100
C942        C  0.32376654  0.67770955  0.39103349    -0.15100
C943        C  0.29189381  0.65016393  0.40240518     0.07000
C944        C  0.28783803  0.65082516  0.42841545    -0.15100
H945        H  0.31195639  0.67813633  0.46292878     0.11000
H946        H  0.37650992  0.72567596  0.39642369     0.11000
H947        H  0.32733665  0.67769732  0.37107826     0.11000
H948        H  0.26306270  0.62994117  0.43754440     0.11000
C949        C  0.03884252  0.78245158  0.46835178    -0.15100
C950        C  0.50088453  0.76041648  0.47262577     0.07000
C951        C  0.48784723  0.72646476  0.48516039    -0.15100
C952        C  0.51203979  0.71536239  0.49397314    -0.15100
C953        C  0.05005808  0.73775743  0.49044937     0.07000
C954        C  0.06322859  0.77122571  0.47719145    -0.15100
H955        H  0.04974544  0.80889401  0.45905269     0.11000
H956        H  0.45871706  0.70865591  0.48871377     0.11000
H957        H  0.50093205  0.68942045  0.50394713     0.11000
H958        H  0.09247932  0.78924463  0.47426761     0.11000
C959        C  0.30871751  0.76147179  0.52623968    -0.15100
C960        C  0.32765688  0.79361113  0.51148595     0.07000
C961        C  0.31082162  0.81457337  0.50658552    -0.15100
C962        C  0.27546184  0.80308708  0.51540719    -0.15100
C963        C  0.25577844  0.77015898  0.52924903     0.07000
C964        C  0.27305910  0.74983318  0.53504672    -0.15100
H965        H  0.32100289  0.74463420  0.53033488     0.11000
H966        H  0.32462332  0.83944652  0.49542575     0.11000
H967        H  0.26307885  0.81964688  0.51071367     0.11000
H968        H  0.25855344  0.72431049  0.54548768     0.11000
C969        C  0.04628443  0.71511597  0.61038146    -0.15100
C970        C  0.04746658  0.68580065  0.59816772     0.07000
C971        C  0.51990727  0.64928147  0.60341413    -0.15100
C972        C  0.49205427  0.64207203  0.62067700    -0.15100
C973        C  0.49030103  0.67123250  0.63267714     0.07000
C974        C  0.51768488  0.70791551  0.62723207    -0.15100
H975        H  0.06706433  0.74354063  0.60654672     0.11000
H976        H  0.52020750  0.62616043  0.59432890     0.11000
H977        H  0.47169696  0.61352084  0.62457434     0.11000
H978        H  0.51745407  0.73098596  0.63643397     0.11000
C979        C  0.03746535  0.79607988  0.69805003    -0.15100
C980        C  0.49955346  0.78298246  0.69859714     0.07000
C981        C  0.48650547  0.80655664  0.69089123    -0.15100
C982        C  0.51067190  0.84196985  0.68176501    -0.15100
C983        C  0.04836213  0.85433188  0.67977493     0.07000
C984        C  0.06164554  0.83136401  0.68855027    -0.15100
H985        H  0.04812864  0.77831018  0.70358290     0.11000
H986        H  0.45728841  0.79701807  0.69111914     0.11000
H987        H  0.49964889  0.85899291  0.67526331     0.11000
H988        H  0.09068094  0.84028989  0.68744954     0.11000
C989        C  0.30489979  0.04080112  0.66791029    -0.15100
C990        C  0.32518430  0.57647879  0.65786832     0.07000
C991        C  0.30866972  0.58752831  0.63957340    -0.15100
C992        C  0.27219473  0.56358088  0.63202986    -0.15100
C993        C  0.25165363  0.02860915  0.64302397     0.07000
C994        C  0.26858162  0.01730531  0.66069227    -0.15100
H995        H  0.31665279  0.03140989  0.68204287     0.11000
H996        H  0.32362975  0.61495769  0.63155194     0.11000
H997        H  0.25961368  0.57290950  0.61847164     0.11000
H998        H  0.25337891  0.99028862  0.66931523     0.11000
C999        C  0.15182641  0.05530794  0.69612489    -0.15100
C1000       C  0.13679056  0.01814512  0.70328133     0.07000
C1001       C  0.13146588  0.50917434  0.72862065    -0.15100
C1002       C  0.13941986  0.53694861  0.74645130    -0.15100
C1003       C  0.15388377  0.57413445  0.73917428     0.07000
C1004       C  0.16080986  0.58309598  0.71390201    -0.15100
H1005       H  0.15632866  0.06277761  0.67663430     0.11000
H1006       H  0.11986585  0.48065474  0.73448586     0.11000
H1007       H  0.13401292  0.52938773  0.76588733     0.11000
H1008       H  0.17181490  0.61143042  0.70778624     0.11000
C1009       C  0.04860028  0.65132949  0.72467814    -0.15100
C1010       C  0.01906865  0.64748349  0.73903489     0.07000
C1011       C  0.51984771  0.64416562  0.76502250    -0.15100
C1012       C  0.04986116  0.64483707  0.77658702    -0.15100
C1013       C  0.07993552  0.64974485  0.76235883     0.07000
C1014       C  0.07904895  0.65290594  0.73629963    -0.15100
H1015       H  0.04852105  0.65408596  0.70465739     0.11000
H1016       H  0.49706720  0.64094915  0.77639760     0.11000
H1017       H  0.04985895  0.64219760  0.79661667     0.11000
H1018       H  0.10184469  0.65632526  0.72486348     0.11000
C1019       C  0.28796978  0.68398141  0.73953464    -0.15100
C1020       C  0.28930956  0.68418615  0.76579515     0.07000
C1021       C  0.31858327  0.68333067  0.77745639    -0.15100
C1022       C  0.34666474  0.68369897  0.76313465    -0.15100
C1023       C  0.34565334  0.68421748  0.73687906     0.07000
C1024       C  0.31569439  0.68367322  0.72521989    -0.15100
H1025       H  0.26529960  0.68397735  0.72998256     0.11000
H1026       H  0.32014722  0.68314528  0.79755635     0.11000
H1027       H  0.36922081  0.68343489  0.77265786     0.11000
H1028       H  0.31405911  0.68372805  0.70511891     0.11000
C1029       C  0.33979059  0.94445381  0.11278802    -0.15100
C1030       C  0.34330788  0.97399601  0.09855214     0.07000
C1031       C  0.34811712  0.97386603  0.07264677    -0.15100
C1032       C  0.34874179  0.94422343  0.06100734    -0.15100
C1033       C  0.34369811  0.91390950  0.07506718     0.07000
C1034       C  0.33956220  0.91437181  0.10107583    -0.15100
H1035       H  0.33620027  0.94418221  0.13276532     0.11000
H1036       H  0.35140972  0.49680316  0.06139436     0.11000
H1037       H  0.35224614  0.94458383  0.04101850     0.11000
H1038       H  0.33615770  0.89143426  0.11236701     0.11000
C1039       C  0.30467221  0.67748596  0.11110505    -0.15100
C1040       C  0.30756529  0.64880837  0.09983059     0.07000
C1041       C  0.31066134  0.64819327  0.07370431    -0.15100
C1042       C  0.31038410  0.67553816  0.05901872    -0.15100
C1043       C  0.30632398  0.70360156  0.07019273     0.07000
C1044       C  0.30371804  0.70446857  0.09639036    -0.15100
H1045       H  0.30233970  0.67855868  0.13112965     0.11000
H1046       H  0.31341543  0.62646308  0.06457496     0.11000
H1047       H  0.31277680  0.67443333  0.03900743     0.11000
H1048       H  0.30115257  0.72625412  0.10559625     0.11000
C1049       C  0.47411329  0.87992959  0.11875504    -0.15100
C1050       C  0.97302865  0.85053971  0.13209662     0.07000
C1051       C  0.94367010  0.81434678  0.12773921    -0.15100
C1052       C  0.41555783  0.80797313  0.11079347    -0.15100
C1053       C  0.41687901  0.83755118  0.09746346     0.07000
C1054       C  0.44672317  0.87347108  0.10145497    -0.15100
H1055       H  0.49620341  0.90811911  0.12179397     0.11000
H1056       H  0.94186072  0.79122966  0.13800863     0.11000
H1057       H  0.39297879  0.77996960  0.10796714     0.11000
H1058       H  0.44846999  0.89683345  0.09153157     0.11000
C1059       C  0.97588028  0.71778265  0.18701303    -0.15100
C1060       C  0.46308749  0.73940177  0.19890907     0.07000
C1061       C  0.42525821  0.72388140  0.20321999    -0.15100
C1062       C  0.40055817  0.68809233  0.19448577    -0.15100
C1063       C  0.41340558  0.66742863  0.18129530     0.07000
C1064       C  0.45135805  0.68231371  0.17825304    -0.15100
H1065       H  0.00499538  0.72885670  0.18363867     0.11000
H1066       H  0.41469167  0.74000998  0.21217679     0.11000
H1067       H  0.37134056  0.67721973  0.19714236     0.11000
H1068       H  0.46211384  0.66695459  0.16846520     0.11000
C1069       C  0.19044693  0.95774173  0.13263412    -0.15100
C1070       C  0.20801448  0.49531780  0.13943248     0.07000
C1071       C  0.18845490  0.50784110  0.15414295    -0.15100
C1072       C  0.15302809  0.48344979  0.16267441    -0.15100
C1073       C  0.13580292  0.94569833  0.15668777     0.07000
C1074       C  0.15461387  0.93312705  0.14118971    -0.15100
H1075       H  0.20479137  0.94720017  0.12150345     0.11000
H1076       H  0.20092330  0.53664853  0.15971937     0.11000
H1077       H  0.13945387  0.49413184  0.17447935     0.11000
H1078       H  0.14205976  0.90407164  0.13627260     0.11000
C1079       C  0.11791428  0.44459015  0.27881231    -0.15100
C1080       C  0.09449098  0.94979539  0.26274719     0.07000
C1081       C  0.09473961  0.98361628  0.26365823    -0.15100
C1082       C  0.11654205  0.51091766  0.28096788    -0.15100
C1083       C  0.13932493  0.50548127  0.29733752     0.07000
C1084       C  0.14048457  0.47242870  0.29581220    -0.15100
H1085       H  0.11856586  0.41894641  0.27835533     0.11000
H1086       H  0.07718317  0.98857703  0.25147421     0.11000
H1087       H  0.11516402  0.53616472  0.28187072     0.11000
H1088       H  0.15756344  0.46750117  0.30848667     0.11000
C1089       C  0.32022428  0.81335729  0.37461380    -0.15100
C1090       C  0.32572729  0.84917055  0.37072451     0.07000
C1091       C  0.35312573  0.87881530  0.38453311    -0.15100
C1092       C  0.37492115  0.87312725  0.40151220    -0.15100
C1093       C  0.37059864  0.83772078  0.40475988     0.07000
C1094       C  0.34280210  0.80776717  0.39128277    -0.15100
H1095       H  0.29952860  0.79005112  0.36406426     0.11000
H1096       H  0.35806769  0.90671981  0.38194197     0.11000
H1097       H  0.39591244  0.89673480  0.41168764     0.11000
H1098       H  0.33850447  0.78007069  0.39367980     0.11000
C1099       C  0.27739487  0.94583892  0.22451324    -0.15100
C1100       C  0.30600791  0.94976586  0.24012606     0.07000
C1101       C  0.34018760  0.48279734  0.23894004    -0.15100
C1102       C  0.34619900  0.51041451  0.22179426    -0.15100
C1103       C  0.31793240  0.50625895  0.20586726     0.07000
C1104       C  0.28317573  0.47403668  0.20774161    -0.15100
H1105       H  0.25062929  0.92089352  0.22517642     0.11000
H1106       H  0.36273975  0.48683810  0.25076749     0.11000
H1107       H  0.37324639  0.53493473  0.22071679     0.11000
H1108       H  0.26101983  0.46997723  0.19549596     0.11000
C1109       C  0.40950239  0.87455434  0.27735865    -0.15100
C1110       C  0.38112195  0.87286456  0.26279347     0.07000
C1111       C  0.38386443  0.87243425  0.23667290    -0.15100
C1112       C  0.41439791  0.87356813  0.22529416    -0.15100
C1113       C  0.44227013  0.87422516  0.23986096     0.07000
C1114       C  0.43960570  0.87477457  0.26598094    -0.15100
H1115       H  0.40806954  0.87500730  0.29747051     0.11000
H1116       H  0.36244168  0.87152622  0.22499862     0.11000
H1117       H  0.41583902  0.87310004  0.20518437     0.11000
H1118       H  0.46100733  0.87558713  0.27763304     0.11000
C1119       C  0.14309970  0.84051075  0.27704428    -0.15100
C1120       C  0.17164078  0.83810832  0.26541251     0.07000
C1121       C  0.17272612  0.83696351  0.23916929    -0.15100
C1122       C  0.14539279  0.83751775  0.22481513    -0.15100
C1123       C  0.11618397  0.83858009  0.23647655     0.07000
C1124       C  0.11541428  0.84042162  0.26268722    -0.15100
H1125       H  0.14183454  0.84177248  0.29712576     0.11000
H1126       H  0.19488613  0.83575241  0.22965326     0.11000
H1127       H  0.14666888  0.83632016  0.20472931     0.11000
H1128       H  0.09333514  0.84188124  0.27213004     0.11000
C1129       C  0.24302645  0.71943855  0.29473753    -0.15100
C1130       C  0.22405237  0.73747218  0.30255533     0.07000
C1131       C  0.19263260  0.71797508  0.31769850    -0.15100
C1132       C  0.18210508  0.68269109  0.32643828    -0.15100
C1133       C  0.20247847  0.66558732  0.32020154     0.07000
C1134       C  0.23228500  0.68369134  0.30349723    -0.15100
H1135       H  0.26709817  0.73357087  0.28294892     0.11000
H1136       H  0.17682205  0.73063132  0.32378478     0.11000
H1137       H  0.15873683  0.66942012  0.33891356     0.11000
H1138       H  0.24825576  0.67092419  0.29806165     0.11000
C1139       C  0.22837169  0.93270411  0.36165943    -0.15100
C1140       C  0.26065950  0.94517717  0.34729812     0.07000
C1141       C  0.28305708  0.48329204  0.34326176    -0.15100
C1142       C  0.27252666  0.50813278  0.35209477    -0.15100
C1143       C  0.23916779  0.49563419  0.36511630     0.07000
C1144       C  0.21769190  0.95773839  0.37049227    -0.15100
H1145       H  0.21056849  0.90341920  0.36520723     0.11000
H1146       H  0.30824904  0.49390347  0.33258025     0.11000
H1147       H  0.29004536  0.53724847  0.34785710     0.11000
H1148       H  0.19188033  0.94728217  0.38039802     0.11000
C1149       C  0.35504991  0.05667225  0.80738588    -0.15100
C1150       C  0.32914674  0.02019982  0.80036665     0.07000
C1151       C  0.32237850  0.51140394  0.77498163    -0.15100
C1152       C  0.34282621  0.53831515  0.75694715    -0.15100
C1153       C  0.36931696  0.57461751  0.76410593     0.07000
C1154       C  0.37449949  0.58372192  0.78946888    -0.15100
H1155       H  0.36052921  0.06415927  0.82688049     0.11000
H1156       H  0.30253116  0.98348280  0.76915950     0.11000
H1157       H  0.33815621  0.53077232  0.73743294     0.11000
H1158       H  0.39470045  0.61143601  0.79546153     0.11000
C1159       C  0.19430843  0.01757254  0.84586473    -0.15100
C1160       C  0.22302632  0.02938739  0.86324546     0.07000
C1161       C  0.23753363  0.56463103  0.87409100    -0.15100
C1162       C  0.22545189  0.58874562  0.86604197    -0.15100
C1163       C  0.19837980  0.57761799  0.84734736     0.07000
C1164       C  0.18197360  0.04127267  0.83811729    -0.15100
H1165       H  0.18221829  0.99021832  0.83752222     0.11000
H1166       H  0.25956590  0.57423602  0.88759394     0.11000
H1167       H  0.23832527  0.61654642  0.87368971     0.11000
H1168       H  0.16087696  0.03168175  0.82391428     0.11000
C1169       C  0.20823681  0.79690798  0.80500503    -0.15100
C1170       C  0.23379527  0.78461177  0.80442505     0.07000
C1171       C  0.27006530  0.80881817  0.81242954    -0.15100
C1172       C  0.28035592  0.84417286  0.82156487    -0.15100
C1173       C  0.25441045  0.85589890  0.82335019     0.07000
C1174       C  0.21836758  0.83212939  0.81457899    -0.15100
H1175       H  0.18000648  0.77860175  0.79932862     0.11000
H1176       H  0.29028671  0.79991841  0.81228906     0.11000
H1177       H  0.30824882  0.86174696  0.82814775     0.11000
H1178       H  0.19774860  0.84044708  0.81562805     0.11000
C1179       C  0.29660002  0.86672574  0.92636014    -0.15100
C1180       C  0.31002830  0.90488283  0.93006234     0.07000
C1181       C  0.32861851  0.92147559  0.95222937    -0.15100
C1182       C  0.33471538  0.90075393  0.96998744    -0.15100
C1183       C  0.32150541  0.86263977  0.96638700     0.07000
C1184       C  0.30173741  0.84561612  0.94457077    -0.15100
H1185       H  0.28194810  0.85323331  0.90944130     0.11000
H1186       H  0.33931774  0.95077437  0.95554037     0.11000
H1187       H  0.34969738  0.91460732  0.98673569     0.11000
H1188       H  0.29114063  0.81633115  0.94133792     0.11000
C1189       C  0.47801948  0.64329128  0.05447732    -0.15100
C1190       C  0.97387810  0.66749458  0.03849322     0.07000
C1191       C  0.94180768  0.67008456  0.04051736    -0.15100
C1192       C  0.41401316  0.64807581  0.05765152    -0.15100
C1193       C  0.41809913  0.62371337  0.07360199     0.07000
C1194       C  0.45078384  0.62211877  0.07205630    -0.15100
H1195       H  0.50236630  0.64061646  0.05327700     0.11000
H1196       H  0.93766603  0.68814679  0.02822203     0.11000
H1197       H  0.38931705  0.65016512  0.05844716     0.11000
H1198       H  0.45491341  0.60374936  0.08404433     0.11000
C1199       C  0.08589717  0.65213932  0.90214172    -0.15100
C1200       C  0.09155231  0.68801747  0.90583780     0.07000
C1201       C  0.11940641  0.71745152  0.89216412    -0.15100
C1202       C  0.14102195  0.71097159  0.87504223    -0.15100
C1203       C  0.13444507  0.67480781  0.87084049     0.07000
C1204       C  0.10670525  0.64555031  0.88463566    -0.15100
H1205       H  0.06465830  0.62891870  0.91239565     0.11000
H1206       H  0.12454753  0.74542702  0.89481653     0.11000
H1207       H  0.16194537  0.73396491  0.86445609     0.11000
H1208       H  0.10091187  0.61738855  0.88173877     0.11000
C1209       C  0.43913068  0.57974482  0.92966276    -0.15100
C1210       C  0.44083689  0.61413196  0.93150095     0.07000
C1211       C  0.41373210  0.61909343  0.91988403    -0.15100
C1212       C  0.38486521  0.58986641  0.90705130    -0.15100
C1213       C  0.38322210  0.55549523  0.90497333     0.07000
C1214       C  0.41070174  0.55069782  0.91623627    -0.15100
H1215       H  0.96033797  0.57572973  0.93798945     0.11000
H1216       H  0.41494464  0.64565420  0.92077590     0.11000
H1217       H  0.36386312  0.59415012  0.89865852     0.11000
H1218       H  0.40968324  0.52425080  0.91515388     0.11000
C1219       C  0.11008497  0.83647223  0.91098489    -0.15100
C1220       C  0.11493717  0.82943030  0.93594827     0.07000
C1221       C  0.14870888  0.85205875  0.94757717    -0.15100
C1222       C  0.17744264  0.88044770  0.93431649    -0.15100
C1223       C  0.17306492  0.88666178  0.90909926     0.07000
C1224       C  0.13895644  0.86475094  0.89764205    -0.15100
H1225       H  0.08420523  0.81943603  0.90145634     0.11000
H1226       H  0.15323675  0.84723923  0.96667583     0.11000
H1227       H  0.20352334  0.89692945  0.94374707     0.11000
H1228       H  0.13479099  0.86904550  0.87835119     0.11000
C1229       C  0.42696139  0.74989788  0.96570992    -0.15100
C1230       C  0.46480849  0.77216625  0.96999200     0.07000
C1231       C  0.47801139  0.80710567  0.98137961    -0.15100
C1232       C  0.45370140  0.81819525  0.99025845    -0.15100
C1233       C  0.41562547  0.79465507  0.98785446     0.07000
C1234       C  0.40254562  0.76103949  0.97458726    -0.15100
H1235       H  0.41609366  0.72293004  0.95696835     0.11000
H1236       H  0.50721996  0.82519296  0.98452150     0.11000
H1237       H  0.46467218  0.84452971  0.99989732     0.11000
H1238       H  0.37328629  0.74242094  0.97216493     0.11000
C1239       C  0.15515709  0.71883608  0.00432726    -0.15100
C1240       C  0.13670835  0.73706413  0.01265785     0.07000
C1241       C  0.15447095  0.76613161  0.03017625    -0.15100
C1242       C  0.19038869  0.77731632  0.03850735    -0.15100
C1243       C  0.20915004  0.75967617  0.02939115     0.07000
C1244       C  0.19063936  0.72988729  0.01254201    -0.15100
H1245       H  0.14251143  0.69642255  0.99089717     0.11000
H1246       H  0.14094085  0.78076263  0.03700309     0.11000
H1247       H  0.20377791  0.80030059  0.05144381     0.11000
H1248       H  0.20390007  0.71531627  0.00510853     0.11000
O1249       O  0.48718076  0.14364542  0.96248629    -0.83600
C1250       C  0.58552635  0.29678783  0.94871085     0.95800
O1251       O  0.55657159  0.27673852  0.93662289    -0.72700
O1252       O  0.56054700  0.21928170  0.92090737    -0.76300
Al1253     Al  0.52319214  0.22542240  0.93731152     1.49000
C1254       C  0.56855254  0.19410862  0.92419140     0.91000
O1255       O  0.58527309  0.20089326  0.98622429    -0.82500
O1256       O  0.50994575  0.21999598  0.01242791    -0.76100
Al1257     Al  0.53603240  0.17574647  0.97419372     1.90100
O1258       O  0.58448393  0.24469759  0.00787500    -0.75100
O1259       O  0.51830600  0.27089387  0.97997471    -0.75000
O1260       O  0.58920898  0.28831622  0.97071123    -0.80600
O1261       O  0.48455991  0.23292195  0.95035003    -0.78800
O1262       O  0.53594174  0.21763833  0.96741625    -1.15000
O1263       O  0.98708209  0.17616227  0.93076140    -0.74200
C1264       C  0.97313793  0.14623693  0.94246322     0.96500
C1265       C  0.60017298  0.22685842  0.00186247     0.92900
Al1266     Al  0.54927347  0.25280356  0.99076930     1.55600
O1267       O  0.55671316  0.17327546  0.94299439    -0.78800
C1268       C  0.49033915  0.25781787  0.96621940     0.97100
C1269       C  0.50120863  0.18720878  0.01837998     0.92000
O1270       O  0.51486092  0.17022369  0.00690823    -0.84100
O1271       O  0.85306925  0.49688869  0.88431133    -0.83600
C1272       C  0.70488629  0.41519226  0.89522274     0.95800
O1273       O  0.73326155  0.43560222  0.90758373    -0.72700
O1274       O  0.80046109  0.45424243  0.91709983    -0.76300
Al1275     Al  0.77655113  0.47747065  0.89932127     1.49000
C1276       C  0.80560398  0.42763369  0.91074608     0.91000
O1277       O  0.79738371  0.41618408  0.83910687    -0.82500
O1278       O  0.77714070  0.46865698  0.81976510    -0.76100
Al1279     Al  0.81929302  0.45681376  0.86263802     1.90100
O1280       O  0.73919028  0.39792067  0.84206346    -0.75100
O1281       O  0.73981817  0.48700190  0.84927247    -0.75000
O1282       O  0.70410984  0.41864410  0.87180108    -0.80600
O1283       O  0.75105948  0.50284913  0.88840459    -0.78800
O1284       O  0.77916663  0.45941064  0.86980540    -1.15000
O1285       O  0.82050885  0.52256004  0.89422344    -0.74200
C1286       C  0.85099280  0.02383128  0.89337707     0.96500
C1287       C  0.76424773  0.39185059  0.83535916     0.92900
Al1288     Al  0.74311204  0.44430809  0.84757172     1.55600
O1289       O  0.80824033  0.42117068  0.88801836    -0.78800
C1290       C  0.73921332  0.50557172  0.86743194     0.97100
C1291       C  0.81165993  0.49186474  0.81998412     0.92000
O1292       O  0.83202418  0.49220375  0.83738753    -0.84100
O1293       O  0.85027136  0.38573321  0.29538223    -0.83600
C1294       C  0.70076426  0.33684380  0.27982008     0.95800
O1295       O  0.71876266  0.32429333  0.26887674    -0.72700
O1296       O  0.77536516  0.38678519  0.25401183    -0.76300
Al1297     Al  0.76993504  0.34289770  0.26939351     1.49000
C1298       C  0.80075452  0.41993784  0.25762003     0.91000
O1299       O  0.79550392  0.42964260  0.31960110    -0.82500
O1300       O  0.77369670  0.33321107  0.34431340    -0.76100
Al1301     Al  0.81942013  0.40428100  0.30706392     1.90100
O1302       O  0.75118762  0.38477775  0.34039973    -0.75100
O1303       O  0.72377400  0.29247051  0.31072388    -0.75000
O1304       O  0.70838610  0.34837440  0.30210931    -0.80600
O1305       O  0.76309111  0.29644246  0.28225038    -0.78800
O1306       O  0.77759727  0.36307962  0.29973458    -1.15000
O1307       O  0.81917846  0.35724582  0.26208660    -0.74200
C1308       C  0.84857835  0.37167255  0.27426963     0.96500
C1309       C  0.76981936  0.41861665  0.33528261     0.92900
Al1310     Al  0.74221069  0.34149096  0.32252832     1.55600
O1311       O  0.82232939  0.42818885  0.27601078    -0.78800
C1312       C  0.73791077  0.27740124  0.29788383     0.97100
C1313       C  0.80636450  0.35688427  0.35056769     0.92000
O1314       O  0.82381783  0.38765237  0.33938575    -0.84100
O1315       O  0.48616967  0.38767075  0.20737349    -0.83600
C1316       C  0.58585550  0.33732382  0.22207495     0.95800
O1317       O  0.55530114  0.32466954  0.23287212    -0.72700
O1318       O  0.56168791  0.38716870  0.24837199    -0.76300
Al1319     Al  0.52318017  0.34396330  0.23266763     1.49000
C1320       C  0.56973014  0.42043102  0.24508907     0.91000
O1321       O  0.58469744  0.43067867  0.18342592    -0.82500
O1322       O  0.50974214  0.33484878  0.15786377    -0.76100
Al1323     Al  0.53543847  0.40577886  0.19569941     1.90100
O1324       O  0.58379445  0.38580212  0.16202327    -0.75100
O1325       O  0.51858858  0.29356165  0.19088290    -0.75000
O1326       O  0.58983692  0.34896622  0.19989312    -0.80600
O1327       O  0.48347003  0.29831724  0.21927162    -0.78800
O1328       O  0.53578229  0.36433228  0.20255619    -1.15000
O1329       O  0.98880572  0.35892738  0.24037155    -0.74200
C1330       C  0.97383887  0.37348469  0.22836984     0.96500
C1331       C  0.59946028  0.41950616  0.16781214     0.92900
Al1332     Al  0.54934512  0.34259081  0.17951269     1.55600
O1333       O  0.55653824  0.42917092  0.22690247    -0.78800
C1334       C  0.48939885  0.27904875  0.20356660     0.97100
C1335       C  0.50060820  0.35856253  0.15197212     0.92000
O1336       O  0.51422298  0.38946090  0.16325426    -0.84100
O1337       O  0.85499051  0.01741477  0.13105947    -0.83600
C1338       C  0.80644635  0.11854580  0.11443912     0.95800
O1339       O  0.79396118  0.08766580  0.10369513    -0.72700
O1340       O  0.85581111  0.09259207  0.08850917    -0.76300
Al1341     Al  0.81225601  0.05459471  0.10454867     1.49000
C1342       C  0.88875047  0.10008103  0.09180483     0.91000
O1343       O  0.89846114  0.11693314  0.15377010    -0.82500
O1344       O  0.80255313  0.04226303  0.17911801    -0.76100
Al1345     Al  0.87345059  0.06723371  0.14199070     1.90100
O1346       O  0.85383968  0.11621765  0.17498851    -0.75100
O1347       O  0.76227365  0.05177959  0.14576606    -0.75000
O1348       O  0.81795619  0.12284666  0.13669374    -0.80600
O1349       O  0.76621290  0.01510672  0.11815502    -0.78800
O1350       O  0.83248624  0.06785054  0.13464177    -1.15000
O1351       O  0.82657558  0.01946609  0.09770681    -0.74200
C1352       C  0.84123979  0.00487945  0.10999917     0.96500
C1353       C  0.88736452  0.13158601  0.16952742     0.92900
Al1354     Al  0.81097236  0.08210766  0.15731615     1.55600
O1355       O  0.89712129  0.08734942  0.11048596    -0.78800
C1356       C  0.74741358  0.02167663  0.13382587     0.97100
C1357       C  0.82615137  0.03345636  0.18566954     0.92000
O1358       O  0.85704458  0.04698422  0.17473459    -0.84100
O1359       O  0.85751454  0.38417038  0.04233378    -0.83600
C1360       C  0.80531549  0.23270896  0.05534567     0.95800
O1361       O  0.79219856  0.25062289  0.06565040    -0.72700
O1362       O  0.85479734  0.30663762  0.08219036    -0.76300
Al1363     Al  0.81197351  0.30224964  0.06580912     1.49000
C1364       C  0.88808852  0.33184590  0.07910056     0.91000
O1365       O  0.90050203  0.32999734  0.01572337    -0.82500
O1366       O  0.80671423  0.30800656  0.99001283    -0.76100
Al1367     Al  0.87495362  0.35306410  0.02962106     1.90100
O1368       O  0.85582800  0.28375950  0.99604282    -0.75100
O1369       O  0.76355879  0.25800687  0.02289416    -0.75000
O1370       O  0.81777920  0.24061323  0.03333714    -0.80600
O1371       O  0.76678146  0.29684038  0.05179670    -0.78800
O1372       O  0.83351006  0.31075977  0.03586452    -1.15000
O1373       O  0.82655339  0.35128828  0.07419676    -0.74200
C1374       C  0.84244751  0.38156492  0.06304199     0.96500
C1375       C  0.88949456  0.30364346  0.00038121     0.92900
Al1376     Al  0.81273002  0.27555666  0.01252643     1.55600
O1377       O  0.89754558  0.35337268  0.06056545    -0.78800
C1378       C  0.74844015  0.27250844  0.03531455     0.97100
C1379       C  0.82927350  0.34194574  0.98559667     0.92000
O1380       O  0.85864714  0.35973288  0.99806709    -0.84100
O1381       O  0.60981377  0.13630454  0.79491304    -0.83600
C1382       C  0.75991283  0.18557894  0.78019027     0.95800
O1383       O  0.74197949  0.19811091  0.76928183    -0.72700
O1384       O  0.68448928  0.13650577  0.75379541    -0.76300
Al1385     Al  0.69070432  0.18016255  0.76991738     1.49000
C1386       C  0.65974147  0.10317331  0.75753181     0.91000
O1387       O  0.66410565  0.09345915  0.82006069    -0.82500
O1388       O  0.68652547  0.18987634  0.84469760    -0.76100
Al1389     Al  0.64078677  0.11856434  0.80714227     1.90100
O1390       O  0.70874290  0.13826613  0.84077075    -0.75100
O1391       O  0.73729146  0.23101133  0.81145031    -0.75000
O1392       O  0.75213587  0.17431560  0.80248040    -0.80600
O1393       O  0.69724603  0.22607429  0.78348643    -0.78800
O1394       O  0.68279460  0.15974130  0.80002880    -1.15000
O1395       O  0.64203597  0.16655742  0.76256895    -0.74200
C1396       C  0.61218279  0.15113670  0.77414868     0.96500
C1397       C  0.68961697  0.10438813  0.83572496     0.92900
Al1398     Al  0.71816262  0.18149629  0.82294841     1.55600
O1399       O  0.63901167  0.09428196  0.77643575    -0.78800
C1400       C  0.72207257  0.24534246  0.79921056     0.97100
C1401       C  0.65356771  0.16660392  0.85063839     0.92000
O1402       O  0.63575455  0.13595158  0.83917987    -0.84100
O1403       O  0.97463190  0.13294858  0.70713259    -0.83600
C1404       C  0.87617368  0.18524582  0.72240925     0.95800
O1405       O  0.90669770  0.19768201  0.73325210    -0.72700
O1406       O  0.90218866  0.13628476  0.74899423    -0.76300
Al1407     Al  0.93951746  0.17898154  0.73251755     1.49000
C1408       C  0.89271946  0.10262907  0.74547741     0.91000
O1409       O  0.87678192  0.09160666  0.68352847    -0.82500
O1410       O  0.95248453  0.18673092  0.65795508    -0.76100
Al1411     Al  0.92570933  0.11582773  0.69555268     1.90100
O1412       O  0.87817907  0.13612807  0.66191370    -0.75100
O1413       O  0.94349608  0.22900150  0.69086777    -0.75000
O1414       O  0.87228892  0.17359715  0.70010985    -0.80600
O1415       O  0.97883877  0.22432791  0.71874641    -0.78800
O1416       O  0.92613596  0.15782124  0.70254887    -1.15000
O1417       O  0.97415335  0.16458157  0.73946890    -0.74200
C1418       C  0.98790729  0.14850885  0.72766738     0.96500
C1419       C  0.86210292  0.10262724  0.66804656     0.92900
Al1420     Al  0.91275389  0.17951399  0.67956690     1.55600
O1421       O  0.90381124  0.09264813  0.72661422    -0.78800
C1422       C  0.97287509  0.24351437  0.70327643     0.97100
C1423       C  0.96173024  0.16294672  0.65210618     0.92000
O1424       O  0.94748241  0.13191499  0.66311509    -0.84100
O1425       O  0.97751403  0.38523380  0.46065933    -0.83600
C1426       C  0.87830336  0.23404320  0.44652394     0.95800
O1427       O  0.90927419  0.25165452  0.43627309    -0.72700
O1428       O  0.90280234  0.30754346  0.41969156    -0.76300
Al1429     Al  0.94117997  0.30326668  0.43632415     1.49000
C1430       C  0.89468968  0.33283972  0.42272729     0.91000
O1431       O  0.87900887  0.32996901  0.48482717    -0.82500
O1432       O  0.95156557  0.30901505  0.51169059    -0.76100
Al1433     Al  0.92832511  0.35398787  0.47233646     1.90100
O1434       O  0.87876201  0.28541182  0.50576576    -0.75100
O1435       O  0.94479469  0.25859350  0.47900884    -0.75000
O1436       O  0.87372675  0.24211463  0.46850355    -0.80600
O1437       O  0.98069147  0.29786704  0.45068759    -0.78800
O1438       O  0.92789830  0.31181942  0.46609666    -1.15000
O1439       O  0.97579636  0.35243611  0.42848266    -0.74200
C1440       C  0.99040545  0.38259340  0.44006813     0.96500
C1441       C  0.86379485  0.30386724  0.50021387     0.92900
Al1442     Al  0.91343493  0.27673372  0.48932266     1.55600
O1443       O  0.90730223  0.35495370  0.44104382    -0.78800
C1444       C  0.97449862  0.27327620  0.46686405     0.97100
C1445       C  0.96191734  0.34263506  0.51654779     0.92000
O1446       O  0.94985373  0.36025407  0.50441663    -0.84100
O1447       O  0.61380129  0.01759694  0.37268490    -0.83600
C1448       C  0.76300106  0.11943323  0.38805884     0.95800
O1449       O  0.74513079  0.08891730  0.39906503    -0.72700
O1450       O  0.68849370  0.09425688  0.41429695    -0.76300
Al1451     Al  0.69404366  0.05583104  0.39861424     1.49000
C1452       C  0.66297184  0.10159979  0.41080719     0.91000
O1453       O  0.66882921  0.11619543  0.34858435    -0.82500
O1454       O  0.69055937  0.04132087  0.32405798    -0.76100
Al1455     Al  0.64477848  0.06703386  0.36106200     1.90100
O1456       O  0.71263050  0.11530221  0.32737829    -0.75100
O1457       O  0.74067399  0.05159820  0.35741373    -0.75000
O1458       O  0.75553798  0.12298811  0.36576417    -0.80600
O1459       O  0.70066984  0.01607594  0.38545920    -0.78800
O1460       O  0.68649868  0.06801630  0.36835945    -1.15000
O1461       O  0.64489223  0.02073450  0.40593614    -0.74200
C1462       C  0.61547724  0.00560988  0.39380480     0.96500
C1463       C  0.69398735  0.13041022  0.33251456     0.92900
Al1464     Al  0.72190519  0.08166961  0.34552512     1.55600
O1465       O  0.64182020  0.08837906  0.39216264    -0.78800
C1466       C  0.72594284  0.02213844  0.36992432     0.97100
C1467       C  0.65810134  0.03235906  0.31766211     0.92000
O1468       O  0.64053417  0.04564139  0.32873427    -0.84100
O1469       O  0.59047531  0.49540758  0.61877661    -0.83600
C1470       C  0.65831004  0.41367202  0.60903754     0.95800
O1471       O  0.65012689  0.43377408  0.59654933    -0.72700
O1472       O  0.60157789  0.45229043  0.58636114    -0.76300
Al1473     Al  0.64801604  0.47557954  0.60477326     1.49000
C1474       C  0.56950098  0.42633688  0.59233447     0.91000
O1475       O  0.56475035  0.41437729  0.66391249    -0.82500
O1476       O  0.63577163  0.46564310  0.68414139    -0.76100
Al1477     Al  0.58381877  0.45525678  0.64054534     1.90100
O1478       O  0.60459771  0.39585441  0.66061131    -0.75100
O1479       O  0.69248763  0.48513347  0.65581745    -0.75000
O1480       O  0.66170041  0.41709262  0.63249915    -0.80600
O1481       O  0.69827320  0.50120167  0.61674892    -0.78800
O1482       O  0.62656095  0.45752167  0.63389328    -1.15000
O1483       O  0.64868993  0.52053778  0.60966498    -0.74200
C1484       C  0.61954559  0.02193760  0.60970136     0.96500
C1485       C  0.57368944  0.39000760  0.66752275     0.92900
Al1486     Al  0.64687766  0.44217448  0.65639613     1.55600
O1487       O  0.55982545  0.41995011  0.61491974    -0.78800
C1488       C  0.71204857  0.50413770  0.63806848     0.97100
C1489       C  0.62529755  0.48955303  0.68372039     0.92000
O1490       O  0.60607818  0.49060570  0.66603324    -0.84100
O1491       O  0.60454659  0.14194132  0.53928827    -0.83600
C1492       C  0.66054162  0.29528411  0.55536437     0.95800
O1493       O  0.67010301  0.27518021  0.56679243    -0.72700
O1494       O  0.60940308  0.21697278  0.58263389    -0.76300
Al1495     Al  0.65240673  0.22362159  0.56501685     1.49000
C1496       C  0.57599043  0.19251760  0.57919649     0.91000
O1497       O  0.56455939  0.20077337  0.51670890    -0.82500
O1498       O  0.65879449  0.22023492  0.49031885    -0.76100
Al1499     Al  0.58864415  0.17511836  0.52823821     1.90100
O1500       O  0.60923448  0.24470519  0.49571186    -0.75100
O1501       O  0.70109133  0.27059921  0.52286015    -0.75000
O1502       O  0.64766684  0.28703266  0.53348129    -0.80600
O1503       O  0.69810312  0.23116338  0.55059237    -0.78800
O1504       O  0.63081816  0.21662035  0.53533828    -1.15000
O1505       O  0.63953265  0.17420727  0.57038807    -0.74200
C1506       C  0.62209306  0.14415611  0.55878708     0.96500
C1507       C  0.57581016  0.22701084  0.50144202     0.92900
Al1508     Al  0.65218720  0.25234950  0.51255545     1.55600
O1509       O  0.56614652  0.17277658  0.55968959    -0.78800
C1510       C  0.71641828  0.25635280  0.53486535     0.97100
C1511       C  0.63512591  0.18744380  0.48410169     0.92000
O1512       O  0.60443014  0.17005698  0.49533786    -0.84100
C1513       C  0.65271730  0.08665224  0.59387702    -0.15100
C1514       C  0.61942366  0.05330319  0.59720759     0.07000
C1515       C  0.58716601  0.04915818  0.58629793    -0.15100
C1516       C  0.58830162  0.07799273  0.57230649    -0.15100
C1517       C  0.62156542  0.11149788  0.56944867     0.07000
C1518       C  0.65367223  0.11558945  0.58041115    -0.15100
H1519       H  0.67805129  0.09046194  0.60186543     0.11000
H1520       H  0.56127884  0.02346216  0.58824432     0.11000
H1521       H  0.56305789  0.07466301  0.56449449     0.11000
H1522       H  0.67950057  0.14143702  0.57874110     0.11000
C1523       C  0.65582161  0.38126347  0.56947784    -0.15100
C1524       C  0.66279509  0.38549947  0.59528216     0.07000
C1525       C  0.67195709  0.36160228  0.60739861    -0.15100
C1526       C  0.67266790  0.33310613  0.59408046    -0.15100
C1527       C  0.66391936  0.32790253  0.56851334     0.07000
C1528       C  0.65623031  0.35269430  0.55626493    -0.15100
H1529       H  0.64886510  0.39940233  0.55947466     0.11000
H1530       H  0.67762282  0.36433458  0.62716674     0.11000
H1531       H  0.67884298  0.31435927  0.60404385     0.11000
H1532       H  0.64963517  0.34948206  0.53662762     0.11000
C1533       C  0.62283857  0.12421414  0.42952835    -0.15100
C1534       C  0.65694685  0.12537560  0.42880546     0.07000
C1535       C  0.68464932  0.14909102  0.44550381    -0.15100
C1536       C  0.67815536  0.17070668  0.46270922    -0.15100
C1537       C  0.64353037  0.16830736  0.46397135     0.07000
C1538       C  0.61605634  0.14498597  0.44714245    -0.15100
H1539       H  0.60093793  0.10637659  0.41690582     0.11000
H1540       H  0.71129517  0.15084227  0.44531908     0.11000
H1541       H  0.69969143  0.18822266  0.47566596     0.11000
H1542       H  0.58915336  0.14262890  0.44774919     0.11000
C1543       C  0.01424094  0.36767854  0.57752277    -0.15100
C1544       C  0.54263888  0.40413779  0.57274679     0.07000
C1545       C  0.54456548  0.41954452  0.54928489    -0.15100
C1546       C  0.01807202  0.39932671  0.53118626    -0.15100
C1547       C  0.98974921  0.36292380  0.53593057     0.07000
C1548       C  0.98832314  0.34699783  0.55908959    -0.15100
H1549       H  0.01224109  0.35514514  0.59546680     0.11000
H1550       H  0.56604099  0.44758614  0.54514108     0.11000
H1551       H  0.01981793  0.41204206  0.51334018     0.11000
H1552       H  0.96667292  0.31899597  0.56311138     0.11000
C1553       C  0.57855901  0.47387189  0.43137556    -0.15100
C1554       C  0.58292398  0.47453827  0.40536050     0.07000
C1555       C  0.55643746  0.94538865  0.39095376    -0.15100
C1556       C  0.52652334  0.41549238  0.40246112    -0.15100
C1557       C  0.52212308  0.41470865  0.42849023     0.07000
C1558       C  0.54813763  0.44438584  0.44284916    -0.15100
H1559       H  0.59862473  0.49638402  0.44283321     0.11000
H1560       H  0.55930423  0.94537131  0.37092572     0.11000
H1561       H  0.00658825  0.39300760  0.39093142     0.11000
H1562       H  0.54532069  0.44442570  0.46287984     0.11000
C1563       C  0.81563345  0.17823429  0.44298080    -0.15100
C1564       C  0.84815731  0.20501423  0.43175244     0.07000
C1565       C  0.85184849  0.20478476  0.40563947    -0.15100
C1566       C  0.82376614  0.17771054  0.39103168    -0.15100
C1567       C  0.79189623  0.15016186  0.40240431     0.07000
C1568       C  0.78784341  0.15082063  0.42841501    -0.15100
H1569       H  0.81196423  0.17813034  0.46292811     0.11000
H1570       H  0.87650761  0.22568031  0.39642074     0.11000
H1571       H  0.82733383  0.17770042  0.37107609     0.11000
H1572       H  0.76307018  0.12993457  0.43754479     0.11000
C1573       C  0.53884003  0.28244810  0.46834941    -0.15100
C1574       C  0.00088636  0.26041786  0.47262350     0.07000
C1575       C  0.98784822  0.22646315  0.48515436    -0.15100
C1576       C  0.01204058  0.21536103  0.49396802    -0.15100
C1577       C  0.55005488  0.23775398  0.49044776     0.07000
C1578       C  0.56322564  0.27122163  0.47718904    -0.15100
H1579       H  0.54974336  0.30889028  0.45904986     0.11000
H1580       H  0.95871742  0.20865182  0.48870423     0.11000
H1581       H  0.00093220  0.18941669  0.50393909     0.11000
H1582       H  0.59247637  0.28923987  0.47426465     0.11000
C1583       C  0.80871407  0.26146544  0.52623798    -0.15100
C1584       C  0.82765322  0.29360433  0.51148377     0.07000
C1585       C  0.81081756  0.31456605  0.50658288    -0.15100
C1586       C  0.77545808  0.30308019  0.51540485    -0.15100
C1587       C  0.75577496  0.27015293  0.52924751     0.07000
C1588       C  0.77305572  0.24982717  0.53504539    -0.15100
H1589       H  0.82099978  0.24462818  0.53033351     0.11000
H1590       H  0.82461892  0.33943879  0.49542272     0.11000
H1591       H  0.76307519  0.31964000  0.51071101     0.11000
H1592       H  0.75855030  0.22430503  0.54548695     0.11000
C1593       C  0.54627918  0.21511809  0.61037767    -0.15100
C1594       C  0.54746350  0.18580234  0.59816618     0.07000
C1595       C  0.01990625  0.14928295  0.60341006    -0.15100
C1596       C  0.99205271  0.14207272  0.62067252    -0.15100
C1597       C  0.99030367  0.17123260  0.63267680     0.07000
C1598       C  0.01769199  0.20791569  0.62723642    -0.15100
H1599       H  0.56705728  0.24354270  0.60654113     0.11000
H1600       H  0.02020316  0.12616239  0.59432146     0.11000
H1601       H  0.97169168  0.11352149  0.62456629     0.11000
H1602       H  0.01746428  0.23098542  0.63644177     0.11000
C1603       C  0.53746704  0.29608030  0.69805195    -0.15100
C1604       C  0.99955425  0.28297937  0.69859673     0.07000
C1605       C  0.98650571  0.30655443  0.69089403    -0.15100
C1606       C  0.01067112  0.34196772  0.68176738    -0.15100
C1607       C  0.54836406  0.35433139  0.67977530     0.07000
C1608       C  0.56164743  0.33136403  0.68855169    -0.15100
H1609       H  0.54813022  0.27831083  0.70358566     0.11000
H1610       H  0.95728880  0.29701647  0.69112479     0.11000
H1611       H  0.99964755  0.35899159  0.67526842     0.11000
H1612       H  0.59068287  0.34029004  0.68745147     0.11000
C1613       C  0.80489974  0.54080018  0.66791073    -0.15100
C1614       C  0.82518825  0.07647459  0.65786604     0.07000
C1615       C  0.80867255  0.08752635  0.63957339    -0.15100
C1616       C  0.77219756  0.06357954  0.63202986    -0.15100
C1617       C  0.75165439  0.52860743  0.64302337     0.07000
C1618       C  0.76858149  0.51730460  0.66069306    -0.15100
H1619       H  0.81665195  0.53141001  0.68204461     0.11000
H1620       H  0.82363139  0.11495726  0.63155415     0.11000
H1621       H  0.75961535  0.07291027  0.61847396     0.11000
H1622       H  0.75337800  0.49028907  0.66931745     0.11000
C1623       C  0.65183402  0.55530504  0.69612749    -0.15100
C1624       C  0.63679198  0.51814139  0.70328341     0.07000
C1625       C  0.63145422  0.00917245  0.72862053    -0.15100
C1626       C  0.63940732  0.03694677  0.74645085    -0.15100
C1627       C  0.65388557  0.07413489  0.73917453     0.07000
C1628       C  0.66082689  0.08309831  0.71390330    -0.15100
H1629       H  0.65634192  0.56277577  0.67663717     0.11000
H1630       H  0.61984264  0.98065117  0.73448501     0.11000
H1631       H  0.63398841  0.02938411  0.76588603     0.11000
H1632       H  0.67184326  0.11143451  0.70778794     0.11000
C1633       C  0.54860231  0.15132830  0.72467636    -0.15100
C1634       C  0.51907093  0.14748262  0.73903327     0.07000
C1635       C  0.01985108  0.14416861  0.76502226    -0.15100
C1636       C  0.54986480  0.14483859  0.77658539    -0.15100
C1637       C  0.57993914  0.14974662  0.76235712     0.07000
C1638       C  0.57905166  0.15290607  0.73629780    -0.15100
H1639       H  0.54852251  0.15408394  0.70465553     0.11000
H1640       H  0.99707063  0.14095236  0.77639734     0.11000
H1641       H  0.54986306  0.14220003  0.79661511     0.11000
H1642       H  0.60184732  0.15632535  0.72486155     0.11000
C1643       C  0.78797326  0.18398315  0.73953319    -0.15100
C1644       C  0.78931242  0.18418652  0.76579372     0.07000
C1645       C  0.81858460  0.18332807  0.77745493    -0.15100
C1646       C  0.84666530  0.18369490  0.76313316    -0.15100
C1647       C  0.84565451  0.18421478  0.73687761     0.07000
C1648       C  0.81569704  0.18367341  0.72521842    -0.15100
H1649       H  0.76530425  0.18398138  0.72998112     0.11000
H1650       H  0.82014798  0.18314144  0.79755486     0.11000
H1651       H  0.86922036  0.18342869  0.77265632     0.11000
H1652       H  0.81406244  0.18372954  0.70511745     0.11000
C1653       C  0.83979330  0.44445610  0.11278852    -0.15100
C1654       C  0.84330772  0.47399712  0.09855263     0.07000
C1655       C  0.84811583  0.47386713  0.07264715    -0.15100
C1656       C  0.84874137  0.44422519  0.06100751    -0.15100
C1657       C  0.84369981  0.41391206  0.07506734     0.07000
C1658       C  0.83956589  0.41437481  0.10107612    -0.15100
H1659       H  0.83620439  0.44418482  0.13276591     0.11000
H1660       H  0.85140254  0.99679978  0.06139287     0.11000
H1661       H  0.85224429  0.44458521  0.04101853     0.11000
H1662       H  0.83616334  0.39143788  0.11236725     0.11000
C1663       C  0.80466341  0.17748290  0.11110501    -0.15100
C1664       C  0.80756935  0.14881257  0.09983083     0.07000
C1665       C  0.81067689  0.14820424  0.07370521    -0.15100
C1666       C  0.81039777  0.17554835  0.05901976    -0.15100
C1667       C  0.80632396  0.20360395  0.07019311     0.07000
C1668       C  0.80370707  0.20446447  0.09639034    -0.15100
H1669       H  0.80232167  0.17855008  0.13112917     0.11000
H1670       H  0.81344077  0.12647954  0.06457635     0.11000
H1671       H  0.81279983  0.17444888  0.03900892     0.11000
H1672       H  0.80113113  0.22624394  0.10559603     0.11000
C1673       C  0.97411438  0.37992916  0.11875328    -0.15100
C1674       C  0.47302497  0.35054265  0.13209854     0.07000
C1675       C  0.44366934  0.31434882  0.12773907    -0.15100
C1676       C  0.91555420  0.30797416  0.11079531    -0.15100
C1677       C  0.91687778  0.33755211  0.09746371     0.07000
C1678       C  0.94672419  0.37347123  0.10145350    -0.15100
H1679       H  0.99620642  0.40811816  0.12179082     0.11000
H1680       H  0.44186254  0.29123143  0.13800669     0.11000
H1681       H  0.89297331  0.27997122  0.10797036     0.11000
H1682       H  0.94847287  0.39683356  0.09152888     0.11000
C1683       C  0.47587971  0.21778538  0.18701062    -0.15100
C1684       C  0.96308586  0.23940321  0.19890826     0.07000
C1685       C  0.92525603  0.22388504  0.20321572    -0.15100
C1686       C  0.90055609  0.18809603  0.19448136    -0.15100
C1687       C  0.91340428  0.16743033  0.18129420     0.07000
C1688       C  0.95135695  0.18231364  0.17825493    -0.15100
H1689       H  0.50499463  0.22886110  0.18363442     0.11000
H1690       H  0.91468925  0.24001525  0.21216988     0.11000
H1691       H  0.87133826  0.17722496  0.19713521     0.11000
H1692       H  0.96211315  0.16695297  0.16846955     0.11000
C1693       C  0.69044682  0.45774252  0.13263686    -0.15100
C1694       C  0.70801596  0.99531804  0.13943321     0.07000
C1695       C  0.68845474  0.00784191  0.15414140    -0.15100
C1696       C  0.65302845  0.98345024  0.16267372    -0.15100
C1697       C  0.63580162  0.44570032  0.15668867     0.07000
C1698       C  0.65461382  0.43312808  0.14119269    -0.15100
H1699       H  0.70479219  0.44720021  0.12150792     0.11000
H1700       H  0.70092133  0.03665032  0.15971502     0.11000
H1701       H  0.63945254  0.99413301  0.17447640     0.11000
H1702       H  0.64206075  0.40407208  0.13627743     0.11000
C1703       C  0.61791661  0.94459051  0.27881117    -0.15100
C1704       C  0.59449243  0.44979566  0.26274741     0.07000
C1705       C  0.59474323  0.48361765  0.26365784    -0.15100
C1706       C  0.61653737  0.01091410  0.28097168    -0.15100
C1707       C  0.63932490  0.00547992  0.29733832     0.07000
C1708       C  0.64048773  0.97242920  0.29581067    -0.15100
H1709       H  0.61857110  0.91894836  0.27835204     0.11000
H1710       H  0.57718756  0.48857935  0.25147371     0.11000
H1711       H  0.61515660  0.03615960  0.28187643     0.11000
H1712       H  0.65756999  0.96750317  0.30848292     0.11000
C1713       C  0.82022290  0.31335453  0.37461164    -0.15100
C1714       C  0.82572597  0.34916769  0.37072174     0.07000
C1715       C  0.85312496  0.37881289  0.38452979    -0.15100
C1716       C  0.87492050  0.37312523  0.40150905    -0.15100
C1717       C  0.87059765  0.33771881  0.40475753     0.07000
C1718       C  0.84280081  0.30776479  0.39128081    -0.15100
H1719       H  0.79952690  0.29004796  0.36406246     0.11000
H1720       H  0.85806714  0.40671733  0.38193819     0.11000
H1721       H  0.89591217  0.39673314  0.41168409     0.11000
H1722       H  0.83850297  0.28006835  0.39367837     0.11000
C1723       C  0.77739131  0.44583878  0.22451367    -0.15100
C1724       C  0.80600586  0.44976222  0.24012350     0.07000
C1725       C  0.84018640  0.98279619  0.23893829    -0.15100
C1726       C  0.84619757  0.01041381  0.22179292    -0.15100
C1727       C  0.81793190  0.00625723  0.20586464     0.07000
C1728       C  0.78317636  0.97403294  0.20773700    -0.15100
H1729       H  0.75062423  0.42089547  0.22517872     0.11000
H1730       H  0.86273785  0.98683811  0.25076687     0.11000
H1731       H  0.87324416  0.03493546  0.22071694     0.11000
H1732       H  0.76102122  0.96997247  0.19549022     0.11000
C1733       C  0.90949858  0.37454813  0.27735712    -0.15100
C1734       C  0.88112042  0.37286216  0.26279134     0.07000
C1735       C  0.88386549  0.37243605  0.23667084    -0.15100
C1736       C  0.91439950  0.37357048  0.22529267    -0.15100
C1737       C  0.94226958  0.37422391  0.23985997     0.07000
C1738       C  0.93960238  0.37476894  0.26597992    -0.15100
H1739       H  0.90806351  0.37499770  0.29746898     0.11000
H1740       H  0.86244442  0.37153098  0.22499623     0.11000
H1741       H  0.91584276  0.37310583  0.20518288     0.11000
H1742       H  0.96100230  0.37557862  0.27763248     0.11000
C1743       C  0.64309688  0.34050448  0.27704207    -0.15100
C1744       C  0.67163699  0.33810097  0.26540972     0.07000
C1745       C  0.67272091  0.33695514  0.23916649    -0.15100
C1746       C  0.64538785  0.33751092  0.22481286    -0.15100
C1747       C  0.61618059  0.33857555  0.23647491     0.07000
C1748       C  0.61541167  0.34041665  0.26268561    -0.15100
H1749       H  0.64183269  0.34176675  0.29712357     0.11000
H1750       H  0.69487998  0.33574277  0.22965002     0.11000
H1751       H  0.64666312  0.33631322  0.20472703     0.11000
H1752       H  0.59333356  0.34187756  0.27212896     0.11000
C1753       C  0.74303014  0.21943691  0.29473698    -0.15100
C1754       C  0.72405387  0.23746922  0.30255283     0.07000
C1755       C  0.69263320  0.21797145  0.31769508    -0.15100
C1756       C  0.68210663  0.18268823  0.32643584    -0.15100
C1757       C  0.70248177  0.16558569  0.32020094     0.07000
C1758       C  0.73228953  0.18369029  0.30349758    -0.15100
H1759       H  0.76710280  0.23356987  0.28294926     0.11000
H1760       H  0.67682102  0.23062667  0.32377989     0.11000
H1761       H  0.65873738  0.16941671  0.33891027     0.11000
H1762       H  0.74826172  0.17092411  0.29806347     0.11000
C1763       C  0.72837131  0.43270143  0.36165764    -0.15100
C1764       C  0.76065857  0.44517380  0.34729583     0.07000
C1765       C  0.78306146  0.98329157  0.34326340    -0.15100
C1766       C  0.77253107  0.00813217  0.35209693    -0.15100
C1767       C  0.73917113  0.99563301  0.36511726     0.07000
C1768       C  0.71769305  0.45773647  0.37049140    -0.15100
H1769       H  0.71056737  0.40341659  0.36520511     0.11000
H1770       H  0.80825424  0.99390340  0.33258275     0.11000
H1771       H  0.79005042  0.03724813  0.34786045     0.11000
H1772       H  0.69188182  0.44728078  0.38039752     0.11000
C1773       C  0.85504005  0.55667348  0.80738454    -0.15100
C1774       C  0.82914227  0.52019932  0.80036528     0.07000
C1775       C  0.82238424  0.01139609  0.77497800    -0.15100
C1776       C  0.84283364  0.03830762  0.75694403    -0.15100
C1777       C  0.86931592  0.07461302  0.76410327     0.07000
C1778       C  0.87448727  0.08372003  0.78946610    -0.15100
H1779       H  0.86051561  0.56416163  0.82687923     0.11000
H1780       H  0.80253569  0.48347911  0.76915806     0.11000
H1781       H  0.83817176  0.03076258  0.73742994     0.11000
H1782       H  0.89468118  0.11143645  0.79545927     0.11000
C1783       C  0.69430218  0.51756833  0.84586853    -0.15100
C1784       C  0.72302388  0.52938513  0.86324638     0.07000
C1785       C  0.73753148  0.06462808  0.87408995    -0.15100
C1786       C  0.72545058  0.08874369  0.86604136    -0.15100
C1787       C  0.69838248  0.07761919  0.84734423     0.07000
C1788       C  0.68196693  0.54126830  0.83812141    -0.15100
H1789       H  0.68220949  0.49021273  0.83752783     0.11000
H1790       H  0.75956037  0.07423066  0.88759533     0.11000
H1791       H  0.73832121  0.11654276  0.87369179     0.11000
H1792       H  0.66086736  0.53167596  0.82392039     0.11000
C1793       C  0.70823929  0.29690868  0.80500282    -0.15100
C1794       C  0.73379887  0.28461401  0.80442105     0.07000
C1795       C  0.77006951  0.30882167  0.81242378    -0.15100
C1796       C  0.78035949  0.34417594  0.82155974    -0.15100
C1797       C  0.75441269  0.35590007  0.82334738     0.07000
C1798       C  0.71836941  0.33212954  0.81457736    -0.15100
H1799       H  0.68000853  0.27860141  0.79932772     0.11000
H1800       H  0.79029175  0.29992296  0.81228179     0.11000
H1801       H  0.80825281  0.36175099  0.82814148     0.11000
H1802       H  0.69774946  0.34044584  0.81562804     0.11000
C1803       C  0.79660060  0.36672692  0.92635983    -0.15100
C1804       C  0.81003002  0.40488430  0.93006124     0.07000
C1805       C  0.82862092  0.42147776  0.95222797    -0.15100
C1806       C  0.83471752  0.40075644  0.96998642    -0.15100
C1807       C  0.82150659  0.36264199  0.96638669     0.07000
C1808       C  0.80173770  0.34561767  0.94457085    -0.15100
H1809       H  0.78194799  0.35323398  0.90944128     0.11000
H1810       H  0.83932084  0.45077681  0.95553841     0.11000
H1811       H  0.84970006  0.41461030  0.98673444     0.11000
H1812       H  0.79114001  0.31633244  0.94133861     0.11000
C1813       C  0.97802134  0.14329660  0.05447722    -0.15100
C1814       C  0.47387636  0.16749257  0.03849120     0.07000
C1815       C  0.44180395  0.17007928  0.04051348    -0.15100
C1816       C  0.91401118  0.14807449  0.05764854    -0.15100
C1817       C  0.91809975  0.12371549  0.07360084     0.07000
C1818       C  0.95078643  0.12212439  0.07205664    -0.15100
H1819       H  0.00236980  0.14062450  0.05327801     0.11000
H1820       H  0.43766050  0.18813862  0.02821646     0.11000
H1821       H  0.88931355  0.15016117  0.05844302     0.11000
H1822       H  0.95491812  0.10375784  0.08404618     0.11000
C1823       C  0.58589922  0.15214410  0.90213954    -0.15100
C1824       C  0.59155536  0.18802252  0.90583642     0.07000
C1825       C  0.61941146  0.21745683  0.89216400    -0.15100
C1826       C  0.64102763  0.21097679  0.87504249    -0.15100
C1827       C  0.63444953  0.17481267  0.87083983     0.07000
C1828       C  0.60670797  0.14555507  0.88463398    -0.15100
H1829       H  0.56465900  0.12892323  0.91239250     0.11000
H1830       H  0.62455365  0.24543257  0.89481707     0.11000
H1831       H  0.66195242  0.23397035  0.86445730     0.11000
H1832       H  0.60091351  0.11739305  0.88173657     0.11000
C1833       C  0.93913437  0.07974552  0.92965669    -0.15100
C1834       C  0.94083790  0.11413135  0.93149677     0.07000
C1835       C  0.91373137  0.11909121  0.91988114    -0.15100
C1836       C  0.88486490  0.08986379  0.90704841    -0.15100
C1837       C  0.88322372  0.05549361  0.90496903     0.07000
C1838       C  0.91070567  0.05069799  0.91623016    -0.15100
H1839       H  0.46033407  0.07573104  0.93799329     0.11000
H1840       H  0.91494197  0.14565101  0.92077421     0.11000
H1841       H  0.86386134  0.09414636  0.89865695     0.11000
H1842       H  0.90968910  0.02425197  0.91514649     0.11000
C1843       C  0.61008331  0.33648156  0.91098995    -0.15100
C1844       C  0.61493881  0.32943332  0.93595117     0.07000
C1845       C  0.64871469  0.35205380  0.94757745    -0.15100
C1846       C  0.67744909  0.38044098  0.93431605    -0.15100
C1847       C  0.67306751  0.38666111  0.90910078     0.07000
C1848       C  0.63895529  0.36475830  0.89764640    -0.15100
H1849       H  0.58420033  0.31945175  0.90146350     0.11000
H1850       H  0.65324530  0.34722887  0.96667429     0.11000
H1851       H  0.70353297  0.39691639  0.94374420     0.11000
H1852       H  0.63478691  0.36905813  0.87835716     0.11000
C1853       C  0.92695879  0.24989614  0.96571162    -0.15100
C1854       C  0.96480634  0.27216584  0.96999125     0.07000
C1855       C  0.97800991  0.30710625  0.98137755    -0.15100
C1856       C  0.95370040  0.31819601  0.99025711    -0.15100
C1857       C  0.91562436  0.29465509  0.98785515     0.07000
C1858       C  0.90254353  0.26103794  0.97458967    -0.15100
H1859       H  0.91609052  0.22292732  0.95697138     0.11000
H1860       H  0.00721874  0.32519434  0.98451771     0.11000
H1861       H  0.96467183  0.34453158  0.99989470     0.11000
H1862       H  0.87328403  0.24241859  0.97216918     0.11000
C1863       C  0.65515898  0.21884058  0.00432412    -0.15100
C1864       C  0.63670844  0.23706597  0.01265621     0.07000
C1865       C  0.65446990  0.26613255  0.03017540    -0.15100
C1866       C  0.69038792  0.27731828  0.03850640    -0.15100
C1867       C  0.70915066  0.25968008  0.02938927     0.07000
C1868       C  0.69064148  0.22989283  0.01253871    -0.15100
H1869       H  0.64251440  0.19642812  0.99089317     0.11000
H1870       H  0.64093851  0.28076180  0.03700316     0.11000
H1871       H  0.70377599  0.30030143  0.05144383     0.11000
H1872       H  0.70390334  0.21532349  0.00510424     0.11000
O1873       O  0.48718109  0.64364400  0.96248896    -0.83600
C1874       C  0.58552684  0.79678588  0.94871047     0.95800
O1875       O  0.55657209  0.77673579  0.93662274    -0.72700
O1876       O  0.56054609  0.71927808  0.92090861    -0.76300
Al1877     Al  0.52319222  0.72542002  0.93731260     1.49000
C1878       C  0.56855180  0.69410527  0.92419300     0.91000
O1879       O  0.58527404  0.70089257  0.98622573    -0.82500
O1880       O  0.50994731  0.71999612  0.01242939    -0.76100
Al1881     Al  0.53603308  0.67574535  0.97419569     1.90100
O1882       O  0.58448581  0.74469816  0.00787551    -0.75100
O1883       O  0.51830654  0.77089294  0.97997524    -0.75000
O1884       O  0.58920956  0.78831550  0.97071120    -0.80600
O1885       O  0.48456078  0.73292078  0.95035058    -0.78800
O1886       O  0.53594238  0.71763711  0.96741751    -1.15000
O1887       O  0.98708142  0.67615993  0.93076408    -0.74200
C1888       C  0.97313740  0.64623508  0.94246642     0.96500
C1889       C  0.60017455  0.72685858  0.00186328     0.92900
Al1890     Al  0.54927455  0.75280322  0.99076998     1.55600
O1891       O  0.55671306  0.67327288  0.94299637    -0.78800
C1892       C  0.49034014  0.75781719  0.96621951     0.97100
C1893       C  0.50121016  0.68720900  0.01838183     0.92000
O1894       O  0.51486239  0.67022374  0.00691028    -0.84100
O1895       O  0.85306913  0.99688708  0.88431039    -0.83600
C1896       C  0.70488577  0.91519168  0.89522185     0.95800
O1897       O  0.73326118  0.93560132  0.90758282    -0.72700
O1898       O  0.80046062  0.95424097  0.91709909    -0.76300
Al1899     Al  0.77655098  0.97746960  0.89932034     1.49000
C1900       C  0.80560353  0.92763215  0.91074544     0.91000
O1901       O  0.79738268  0.91618192  0.83910632    -0.82500
O1902       O  0.77714075  0.96865491  0.81976406    -0.76100
Al1903     Al  0.81929260  0.95681194  0.86263728     1.90100
O1904       O  0.73918940  0.89791916  0.84206327    -0.75100
O1905       O  0.73981942  0.98700145  0.84927111    -0.75000
O1906       O  0.70410946  0.91864380  0.87180021    -0.80600
O1907       O  0.75105960  0.00284863  0.88840327    -0.78800
O1908       O  0.77916646  0.95940931  0.86980458    -1.15000
O1909       O  0.82050902  0.02255881  0.89422251    -0.74200
C1910       C  0.85099262  0.52383249  0.89337838     0.96500
C1911       C  0.76424649  0.89184852  0.83535906     0.92900
Al1912     Al  0.74311200  0.94430698  0.84757085     1.55600
O1913       O  0.80823983  0.92116905  0.88801773    -0.78800
C1914       C  0.73921433  0.00557157  0.86743030     0.97100
C1915       C  0.81165998  0.99186267  0.81998314     0.92000
O1916       O  0.83202404  0.99220174  0.83738667    -0.84100
O1917       O  0.85027345  0.88573530  0.29538172    -0.83600
C1918       C  0.70076608  0.83684582  0.27982132     0.95800
O1919       O  0.71876386  0.82429460  0.26887799    -0.72700
O1920       O  0.77536671  0.88678551  0.25401182    -0.76300
Al1921     Al  0.76993614  0.84289820  0.26939425     1.49000
C1922       C  0.80075564  0.91993845  0.25761985     0.91000
O1923       O  0.79550601  0.92964433  0.31960160    -0.82500
O1924       O  0.77369927  0.83321297  0.34431392    -0.76100
Al1925     Al  0.81942204  0.90428263  0.30706393     1.90100
O1926       O  0.75119042  0.88477958  0.34040065    -0.75100
O1927       O  0.72377528  0.79247211  0.31072515    -0.75000
O1928       O  0.70838820  0.84837651  0.30211051    -0.80600
O1929       O  0.76309188  0.79644309  0.28225165    -0.78800
O1930       O  0.77759907  0.86308100  0.29973509    -1.15000
O1931       O  0.81917920  0.85724536  0.26208711    -0.74200
C1932       C  0.84857967  0.87167326  0.27426951     0.96500
C1933       C  0.76982175  0.91861839  0.33528335     0.92900
Al1934     Al  0.74221291  0.84149282  0.32252924     1.55600
O1935       O  0.82233023  0.92819010  0.27601082    -0.78800
C1936       C  0.73791177  0.77740237  0.29788535     0.97100
C1937       C  0.80636735  0.85688604  0.35056777     0.92000
O1938       O  0.82382062  0.88765400  0.33938560    -0.84100
O1939       O  0.48617055  0.88767022  0.20737279    -0.83600
C1940       C  0.58585693  0.83732449  0.22207596     0.95800
O1941       O  0.55530244  0.82466984  0.23287306    -0.72700
O1942       O  0.56168743  0.88716812  0.24837242    -0.76300
Al1943     Al  0.52318059  0.84396260  0.23266781     1.49000
C1944       C  0.56972953  0.92043031  0.24508936     0.91000
O1945       O  0.58469878  0.93067744  0.18342613    -0.82500
O1946       O  0.50974363  0.83484725  0.15786389    -0.76100
Al1947     Al  0.53543953  0.90577793  0.19569910     1.90100
O1948       O  0.58379576  0.88580088  0.16202352    -0.75100
O1949       O  0.51859019  0.79356054  0.19088354    -0.75000
O1950       O  0.58983816  0.84896608  0.19989394    -0.80600
O1951       O  0.48347114  0.79831619  0.21927177    -0.78800
O1952       O  0.53578312  0.86433135  0.20255632    -1.15000
O1953       O  0.98880549  0.85892628  0.24037079    -0.74200
C1954       C  0.97383934  0.87348422  0.22836898     0.96500
C1955       C  0.59946180  0.91950485  0.16781255     0.92900
Al1956     Al  0.54934646  0.84258979  0.17951316     1.55600
O1957       O  0.55653858  0.92917026  0.22690224    -0.78800
C1958       C  0.48940025  0.77904762  0.20356700     0.97100
C1959       C  0.50061003  0.85856109  0.15197173     0.92000
O1960       O  0.51422467  0.88945960  0.16325372    -0.84100
O1961       O  0.85498927  0.51741383  0.13106044    -0.83600
C1962       C  0.80644565  0.61854504  0.11443973     0.95800
O1963       O  0.79396013  0.58766482  0.10369608    -0.72700
O1964       O  0.85581080  0.59259197  0.08851013    -0.76300
Al1965     Al  0.81225537  0.55459424  0.10454948     1.49000
C1966       C  0.88875000  0.60008029  0.09180575     0.91000
O1967       O  0.89846091  0.61693219  0.15377069    -0.82500
O1968       O  0.80255272  0.54226304  0.17911894    -0.76100
Al1969     Al  0.87344981  0.56723277  0.14199147     1.90100
O1970       O  0.85383982  0.61621751  0.17498908    -0.75100
O1971       O  0.76227320  0.55177923  0.14576699    -0.75000
O1972       O  0.81795605  0.62284634  0.13669424    -0.80600
O1973       O  0.76621207  0.51510632  0.11815571    -0.78800
O1974       O  0.83248560  0.56784992  0.13464258    -1.15000
O1975       O  0.82657515  0.51946581  0.09770752    -0.74200
C1976       C  0.84123925  0.50487908  0.10999993     0.96500
C1977       C  0.88736470  0.63158531  0.16952808     0.92900
Al1978     Al  0.81097209  0.58210745  0.15731691     1.55600
O1979       O  0.89712039  0.58734797  0.11048668    -0.78800
C1980       C  0.74741278  0.52167659  0.13382640     0.97100
C1981       C  0.82615088  0.53345626  0.18567043     0.92000
O1982       O  0.85704392  0.54698378  0.17473533    -0.84100
O1983       O  0.85751519  0.88416970  0.04233402    -0.83600
C1984       C  0.80531690  0.73270846  0.05534569     0.95800
O1985       O  0.79220015  0.75062249  0.06565041    -0.72700
O1986       O  0.85479953  0.80663693  0.08219000    -0.76300
Al1987     Al  0.81197542  0.80224914  0.06580918     1.49000
C1988       C  0.88809070  0.83184518  0.07909994     0.91000
O1989       O  0.90050354  0.82999807  0.01572221    -0.82500
O1990       O  0.80671553  0.80800555  0.99001247    -0.76100
Al1991     Al  0.87495468  0.85306393  0.02962078     1.90100
O1992       O  0.85582931  0.78375863  0.99604295    -0.75100
O1993       O  0.76356034  0.75800645  0.02289429    -0.75000
O1994       O  0.81778056  0.74061255  0.03333716    -0.80600
O1995       O  0.76678335  0.79684004  0.05179696    -0.78800
O1996       O  0.83351157  0.81075928  0.03586440    -1.15000
O1997       O  0.82655531  0.85128774  0.07419730    -0.74200
C1998       C  0.84244839  0.88156421  0.06304231     0.96500
C1999       C  0.88949600  0.80364364  0.00038049     0.92900
Al2000     Al  0.81273144  0.77555596  0.01252641     1.55600
O2001       O  0.89754736  0.85337216  0.06056492    -0.78800
C2002       C  0.74844193  0.77250821  0.03531474     0.97100
C2003       C  0.82927402  0.84194500  0.98559649     0.92000
O2004       O  0.85864729  0.85973281  0.99806718    -0.84100
O2005       O  0.60980990  0.63629976  0.79491325    -0.83600
C2006       C  0.75990959  0.68557608  0.78018989     0.95800
O2007       O  0.74197602  0.69810817  0.76928191    -0.72700
O2008       O  0.68448541  0.63650315  0.75379580    -0.76300
Al2009     Al  0.69070080  0.68015978  0.76991806     1.49000
C2010       C  0.65973890  0.60317030  0.75753263     0.91000
O2011       O  0.66410264  0.59345615  0.82006230    -0.82500
O2012       O  0.68652323  0.68987322  0.84469817    -0.76100
Al2013     Al  0.64078386  0.61856091  0.80714303     1.90100
O2014       O  0.70874101  0.63826388  0.84077100    -0.75100
O2015       O  0.73728895  0.73100828  0.81145064    -0.75000
O2016       O  0.75213294  0.67431247  0.80248003    -0.80600
O2017       O  0.69724271  0.72607138  0.78348754    -0.78800
O2018       O  0.68279155  0.65973817  0.80002935    -1.15000
O2019       O  0.64203259  0.66655506  0.76257004    -0.74200
C2020       C  0.61217916  0.65113322  0.77414939     0.96500
C2021       C  0.68961435  0.60438570  0.83572628     0.92900
Al2022     Al  0.71816012  0.68149333  0.82294860     1.55600
O2023       O  0.63900965  0.59427821  0.77643689    -0.78800
C2024       C  0.72206960  0.74533942  0.79921148     0.97100
C2025       C  0.65356534  0.66660101  0.85063891     0.92000
O2026       O  0.63575158  0.63594891  0.83918020    -0.84100
O2027       O  0.97462941  0.63294820  0.70713368    -0.83600
C2028       C  0.87617179  0.68524643  0.72240798     0.95800
O2029       O  0.90669570  0.69768307  0.73325109    -0.72700
O2030       O  0.90218671  0.63628641  0.74899436    -0.76300
Al2031     Al  0.93951569  0.67898280  0.73251735     1.49000
C2032       C  0.89271713  0.60263059  0.74547782     0.91000
O2033       O  0.87678023  0.59160767  0.68352886    -0.82500
O2034       O  0.95248450  0.68673079  0.65795500    -0.76100
Al2035     Al  0.92570733  0.61582803  0.69555324     1.90100
O2036       O  0.87817862  0.63612853  0.66191275    -0.75100
O2037       O  0.94349527  0.72900226  0.69086670    -0.75000
O2038       O  0.87228773  0.67359815  0.70010848    -0.80600
O2039       O  0.97883717  0.72432906  0.71874613    -0.78800
O2040       O  0.92613458  0.65782201  0.70254876    -1.15000
O2041       O  0.97415163  0.66458284  0.73946930    -0.74200
C2042       C  0.98790503  0.64850914  0.72766826     0.96500
C2043       C  0.86210173  0.60262803  0.66804642     0.92900
Al2044     Al  0.91275325  0.67951457  0.67956612     1.55600
O2045       O  0.90380854  0.59264912  0.72661473    -0.78800
C2046       C  0.97287381  0.74351540  0.70327584     0.97100
C2047       C  0.96172985  0.66294609  0.65210660     0.92000
O2048       O  0.94748116  0.63191445  0.66311569    -0.84100
O2049       O  0.97751462  0.88523326  0.46066055    -0.83600
C2050       C  0.87830316  0.73404308  0.44652458     0.95800
O2051       O  0.90927428  0.75165410  0.43627404    -0.72700
O2052       O  0.90280292  0.80754313  0.41969222    -0.76300
Al2053     Al  0.94118021  0.80326633  0.43632507     1.49000
C2054       C  0.89469092  0.83283989  0.42272762     0.91000
O2055       O  0.87900856  0.82996867  0.48482712    -0.82500
O2056       O  0.95156505  0.80901449  0.51169135    -0.76100
Al2057     Al  0.92832521  0.85398757  0.47233710     1.90100
O2058       O  0.87876178  0.78541197  0.50576633    -0.75100
O2059       O  0.94479411  0.75859289  0.47900976    -0.75000
O2060       O  0.87372629  0.74211457  0.46850411    -0.80600
O2061       O  0.98069150  0.79786683  0.45068893    -0.78800
O2062       O  0.92789822  0.81181908  0.46609741    -1.15000
O2063       O  0.97579667  0.85243583  0.42848363    -0.74200
C2064       C  0.99040587  0.88259305  0.44006922     0.96500
C2065       C  0.86379455  0.80386720  0.50021405     0.92900
Al2066     Al  0.91343446  0.77673337  0.48932339     1.55600
O2067       O  0.90730344  0.85495393  0.44104411    -0.78800
C2068       C  0.97449851  0.77327606  0.46686545     0.97100
C2069       C  0.96191661  0.84263441  0.51654867     0.92000
O2070       O  0.94985279  0.86025332  0.50441761    -0.84100
O2071       O  0.61380245  0.51759652  0.37268459    -0.83600
C2072       C  0.76300172  0.61943361  0.38805886     0.95800
O2073       O  0.74513169  0.58891757  0.39906495    -0.72700
O2074       O  0.68849491  0.59425788  0.41429659    -0.76300
Al2075     Al  0.69404445  0.55583159  0.39861421     1.49000
C2076       C  0.66297300  0.60160074  0.41080685     0.91000
O2077       O  0.66882929  0.61619505  0.34858444    -0.82500
O2078       O  0.69056065  0.54132163  0.32405780    -0.76100
Al2079     Al  0.64477905  0.56703360  0.36106188     1.90100
O2080       O  0.71263126  0.61530288  0.32737851    -0.75100
O2081       O  0.74067468  0.55159855  0.35741376    -0.75000
O2082       O  0.75553869  0.62298851  0.36576422    -0.80600
O2083       O  0.70067029  0.51607626  0.38545917    -0.78800
O2084       O  0.68649946  0.56801660  0.36835936    -1.15000
O2085       O  0.64489289  0.52073531  0.40593637    -0.74200
C2086       C  0.61547818  0.50560999  0.39380472     0.96500
C2087       C  0.69398777  0.63041051  0.33251496     0.92900
Al2088     Al  0.72190608  0.58167015  0.34552511     1.55600
O2089       O  0.64182062  0.58837893  0.39216268    -0.78800
C2090       C  0.72594310  0.52213857  0.36992416     0.97100
C2091       C  0.65810262  0.53235948  0.31766179     0.92000
O2092       O  0.64053497  0.54564124  0.32873402    -0.84100
O2093       O  0.59047649  0.99540822  0.61877588    -0.83600
C2094       C  0.65831014  0.91367192  0.60903790     0.95800
O2095       O  0.65012792  0.93377450  0.59654951    -0.72700
O2096       O  0.60157886  0.95229053  0.58636096    -0.76300
Al2097     Al  0.64801713  0.97557998  0.60477308     1.49000
C2098       C  0.56950193  0.92633709  0.59233445     0.91000
O2099       O  0.56475122  0.91437923  0.66391266    -0.82500
O2100       O  0.63577340  0.96564524  0.68414105    -0.76100
Al2101     Al  0.58381999  0.95525805  0.64054508     1.90100
O2102       O  0.60459806  0.89585569  0.66061205    -0.75100
O2103       O  0.69248933  0.98513340  0.65581710    -0.75000
O2104       O  0.66169996  0.91709221  0.63249954    -0.80600
O2105       O  0.69827428  0.00120209  0.61674867    -0.78800
O2106       O  0.62656208  0.95752254  0.63389319    -1.15000
O2107       O  0.64869114  0.02053843  0.60966440    -0.74200
C2108       C  0.61954445  0.52193708  0.60970215     0.96500
C2109       C  0.57368986  0.89000932  0.66752324     0.92900
Al2110     Al  0.64687849  0.94217524  0.65639623     1.55600
O2111       O  0.55982652  0.91995079  0.61491976    -0.78800
C2112       C  0.71205005  0.00413755  0.63806802     0.97100
C2113       C  0.62529925  0.98955514  0.68371987     0.92000
O2114       O  0.60607972  0.99060757  0.66603272    -0.84100
O2115       O  0.60454738  0.64194131  0.53928823    -0.83600
C2116       C  0.66054061  0.79528339  0.55536537     0.95800
O2117       O  0.67010203  0.77517955  0.56679351    -0.72700
O2118       O  0.60940270  0.71697131  0.58263445    -0.76300
Al2119     Al  0.65240680  0.72362123  0.56501753     1.49000
C2120       C  0.57599011  0.69251614  0.57919685     0.91000
O2121       O  0.56456075  0.70077405  0.51670939    -0.82500
O2122       O  0.65879672  0.72023635  0.49031970    -0.76100
Al2123     Al  0.58864511  0.67511858  0.52823830     1.90100
O2124       O  0.60923555  0.74470545  0.49571197    -0.75100
O2125       O  0.70109193  0.77060070  0.52286173    -0.75000
O2126       O  0.64766636  0.78703231  0.53348214    -0.80600
O2127       O  0.69810364  0.73116404  0.55059326    -0.78800
O2128       O  0.63081878  0.71662046  0.53533885    -1.15000
O2129       O  0.63953328  0.67420699  0.57038821    -0.74200
C2130       C  0.62209359  0.64415590  0.55878715     0.96500
C2131       C  0.57581138  0.72701152  0.50144253     0.92900
Al2132     Al  0.65218804  0.75235013  0.51255630     1.55600
O2133       O  0.56614647  0.67277566  0.55968969    -0.78800
C2134       C  0.71641884  0.75635393  0.53486655     0.97100
C2135       C  0.63512828  0.68744544  0.48410196     0.92000
O2136       O  0.60443214  0.67005831  0.49533777    -0.84100
C2137       C  0.65271700  0.58665106  0.59387661    -0.15100
C2138       C  0.61942278  0.55330296  0.59720854     0.07000
C2139       C  0.58716485  0.54915899  0.58630005    -0.15100
C2140       C  0.58830081  0.57799341  0.57230825    -0.15100
C2141       C  0.62156529  0.61149747  0.56944890     0.07000
C2142       C  0.65367233  0.61558814  0.58041035    -0.15100
H2143       H  0.67805120  0.59046011  0.60186417     0.11000
H2144       H  0.56127717  0.52346377  0.58824756     0.11000
H2145       H  0.56305692  0.57466449  0.56449709     0.11000
H2146       H  0.67950122  0.64143498  0.57873919     0.11000
C2147       C  0.65582383  0.88126460  0.56947807    -0.15100
C2148       C  0.66279471  0.88549906  0.59528272     0.07000
C2149       C  0.67195340  0.86159990  0.60739981    -0.15100
C2150       C  0.67266373  0.83310343  0.59408186    -0.15100
C2151       C  0.66391799  0.82790151  0.56851433     0.07000
C2152       C  0.65623199  0.85269501  0.55626535    -0.15100
H2153       H  0.64886997  0.89940509  0.55947446     0.11000
H2154       H  0.67761686  0.86433090  0.62716822     0.11000
H2155       H  0.67883626  0.81435508  0.60404568     0.11000
H2156       H  0.64963913  0.84948404  0.53662768     0.11000
C2157       C  0.62284155  0.62421829  0.42952700    -0.15100
C2158       C  0.65694888  0.62537768  0.42880481     0.07000
C2159       C  0.68465108  0.64909182  0.44550383    -0.15100
C2160       C  0.67815753  0.67070763  0.46270944    -0.15100
C2161       C  0.64353311  0.66830971  0.46397117     0.07000
C2162       C  0.61605966  0.64499017  0.44714132    -0.15100
H2163       H  0.60094121  0.60638207  0.41690387     0.11000
H2164       H  0.71129635  0.65084173  0.44531961     0.11000
H2165       H  0.69969332  0.68822238  0.47566673     0.11000
H2166       H  0.58915721  0.64263439  0.44774760     0.11000
C2167       C  0.01424191  0.86767798  0.57752301    -0.15100
C2168       C  0.54263955  0.90413771  0.57274692     0.07000
C2169       C  0.54456560  0.91954421  0.54928504    -0.15100
C2170       C  0.01807130  0.89932622  0.53118681    -0.15100
C2171       C  0.98974875  0.86292324  0.53593127     0.07000
C2172       C  0.98832357  0.84699720  0.55909011    -0.15100
H2173       H  0.01224277  0.85514457  0.59546694     0.11000
H2174       H  0.56604109  0.94758581  0.54514104     0.11000
H2175       H  0.01981662  0.91204156  0.51334084     0.11000
H2176       H  0.96667364  0.81899522  0.56311199     0.11000
C2177       C  0.57855874  0.97387186  0.43137589    -0.15100
C2178       C  0.58292305  0.97453830  0.40536077     0.07000
C2179       C  0.55643877  0.44538862  0.39095331    -0.15100
C2180       C  0.52652244  0.91549230  0.40246184    -0.15100
C2181       C  0.52212298  0.91470838  0.42849101     0.07000
C2182       C  0.54813782  0.94438565  0.44284977    -0.15100
H2183       H  0.59862480  0.99638402  0.44283339     0.11000
H2184       H  0.55930608  0.44537125  0.37092529     0.11000
H2185       H  0.00658670  0.89300822  0.39093231     0.11000
H2186       H  0.54532148  0.94442544  0.46288048     0.11000
C2187       C  0.81563204  0.67823593  0.44298080    -0.15100
C2188       C  0.84815717  0.70501438  0.43175286     0.07000
C2189       C  0.85184969  0.70478375  0.40564007    -0.15100
C2190       C  0.82376754  0.67770971  0.39103206    -0.15100
C2191       C  0.79189645  0.65016239  0.40240438     0.07000
C2192       C  0.78784217  0.65082240  0.42841483    -0.15100
H2193       H  0.81196169  0.67813296  0.46292793     0.11000
H2194       H  0.87650980  0.72567820  0.39642162     0.11000
H2195       H  0.82733631  0.67769851  0.37107667     0.11000
H2196       H  0.76306801  0.62993730  0.43754425     0.11000
C2197       C  0.53884003  0.78244754  0.46834961    -0.15100
C2198       C  0.00088656  0.76041826  0.47262542     0.07000
C2199       C  0.98784910  0.72646499  0.48515799    -0.15100
C2200       C  0.01204174  0.71536299  0.49397118    -0.15100
C2201       C  0.55005586  0.73775478  0.49044888     0.07000
C2202       C  0.56322602  0.77122129  0.47718885    -0.15100
H2203       H  0.54974288  0.80888873  0.45904880     0.11000
H2204       H  0.95871860  0.70865450  0.48870940     0.11000
H2205       H  0.00093382  0.68941968  0.50394343     0.11000
H2206       H  0.59247649  0.78923863  0.47426301     0.11000
C2207       C  0.80871432  0.76146627  0.52623876    -0.15100
C2208       C  0.82765303  0.79360453  0.51148394     0.07000
C2209       C  0.81081723  0.81456603  0.50658271    -0.15100
C2210       C  0.77545808  0.80308064  0.51540515    -0.15100
C2211       C  0.75577537  0.77015395  0.52924843     0.07000
C2212       C  0.77305624  0.74982837  0.53504653    -0.15100
H2213       H  0.82100015  0.74462921  0.53033455     0.11000
H2214       H  0.82461820  0.83943823  0.49542205     0.11000
H2215       H  0.76307510  0.81964030  0.51071113     0.11000
H2216       H  0.75855117  0.72430668  0.54548853     0.11000
C2217       C  0.54627803  0.71511665  0.61037728    -0.15100
C2218       C  0.54746316  0.68580077  0.59816664     0.07000
C2219       C  0.01990767  0.64928132  0.60341207    -0.15100
C2220       C  0.99205416  0.64207127  0.62067462    -0.15100
C2221       C  0.99030375  0.67123138  0.63267757     0.07000
C2222       C  0.01769092  0.70791439  0.62723595    -0.15100
H2223       H  0.56705545  0.74354131  0.60653999     0.11000
H2224       H  0.02020567  0.62616065  0.59432449     0.11000
H2225       H  0.97169420  0.61352011  0.62456939     0.11000
H2226       H  0.01746230  0.73098439  0.63644028     0.11000
C2227       C  0.53746605  0.79608215  0.69805282    -0.15100
C2228       C  0.99955289  0.78298058  0.69859639     0.07000
C2229       C  0.98650451  0.80655530  0.69089250    -0.15100
C2230       C  0.01067036  0.84196880  0.68176631    -0.15100
C2231       C  0.54836391  0.85433321  0.67977566     0.07000
C2232       C  0.56164694  0.83136606  0.68855303    -0.15100
H2233       H  0.54812911  0.77831291  0.70358741     0.11000
H2234       H  0.95728749  0.79701690  0.69112197     0.11000
H2235       H  0.99964699  0.85899237  0.67526629     0.11000
H2236       H  0.59068253  0.84029237  0.68745392     0.11000
C2237       C  0.80490271  0.04079745  0.66790769    -0.15100
C2238       C  0.82518675  0.57647538  0.65786644     0.07000
C2239       C  0.80867226  0.58752526  0.63957170    -0.15100
C2240       C  0.77219715  0.56357831  0.63202842    -0.15100
C2241       C  0.75165608  0.02860678  0.64302243     0.07000
C2242       C  0.76858444  0.01730189  0.66068976    -0.15100
H2243       H  0.81665597  0.03140572  0.68203975     0.11000
H2244       H  0.82363227  0.61495473  0.63155045     0.11000
H2245       H  0.75961599  0.57290747  0.61847063     0.11000
H2246       H  0.75338182  0.99028488  0.66931224     0.11000
C2247       C  0.65184113  0.05530790  0.69612709    -0.15100
C2248       C  0.63679371  0.01814354  0.70328285     0.07000
C2249       C  0.63145825  0.50917101  0.72862134    -0.15100
C2250       C  0.63941121  0.53694512  0.74645184    -0.15100
C2251       C  0.65388376  0.57413236  0.73917528     0.07000
C2252       C  0.66081974  0.58309529  0.71390373    -0.15100
H2253       H  0.65635323  0.06277905  0.67663694     0.11000
H2254       H  0.61985104  0.48065030  0.73448597     0.11000
H2255       H  0.63399655  0.52938298  0.76588731     0.11000
H2256       H  0.67183166  0.61143085  0.70778826     0.11000
C2257       C  0.54860001  0.65132848  0.72467736    -0.15100
C2258       C  0.51906846  0.64748250  0.73903424     0.07000
C2259       C  0.01984786  0.64416712  0.76502320    -0.15100
C2260       C  0.54986108  0.64483548  0.77658618    -0.15100
C2261       C  0.57993563  0.64974381  0.76235796     0.07000
C2262       C  0.57904885  0.65290502  0.73629876    -0.15100
H2263       H  0.54852073  0.65408527  0.70465666     0.11000
H2264       H  0.99706729  0.64095072  0.77639822     0.11000
H2265       H  0.54985882  0.64219570  0.79661580     0.11000
H2266       H  0.60184470  0.65632476  0.72486252     0.11000
C2267       C  0.78797147  0.68398413  0.73953237    -0.15100
C2268       C  0.78930925  0.68418417  0.76579293     0.07000
C2269       C  0.81858022  0.68332296  0.77745380    -0.15100
C2270       C  0.84666115  0.68369060  0.76313182    -0.15100
C2271       C  0.84565191  0.68421406  0.73687633     0.07000
C2272       C  0.81569552  0.68367521  0.72521734    -0.15100
H2273       H  0.76530343  0.68398449  0.72998044     0.11000
H2274       H  0.82014253  0.68313360  0.79755369     0.11000
H2275       H  0.86921529  0.68342228  0.77265478     0.11000
H2276       H  0.81406209  0.68373409  0.70511640     0.11000
C2277       C  0.83979365  0.94445622  0.11278828    -0.15100
C2278       C  0.84330737  0.97399673  0.09855210     0.07000
C2279       C  0.84811404  0.97386554  0.07264650    -0.15100
C2280       C  0.84873967  0.94422339  0.06100717    -0.15100
C2281       C  0.84369958  0.91391112  0.07506738     0.07000
C2282       C  0.83956618  0.91437461  0.10107619    -0.15100
H2283       H  0.83620560  0.94418566  0.13276574     0.11000
H2284       H  0.85140515  0.49680201  0.06139383     0.11000
H2285       H  0.85224181  0.94458272  0.04101816     0.11000
H2286       H  0.83616437  0.89143823  0.11236758     0.11000
C2287       C  0.80466909  0.67748553  0.11110540    -0.15100
C2288       C  0.80756846  0.64881145  0.09983113     0.07000
C2289       C  0.81067035  0.64819966  0.07370521    -0.15100
C2290       C  0.81039221  0.67554408  0.05901961    -0.15100
C2291       C  0.80632520  0.70360360  0.07019320     0.07000
C2292       C  0.80371388  0.70446758  0.09639063    -0.15100
H2293       H  0.80233193  0.67855554  0.13112977     0.11000
H2294       H  0.81342926  0.62647212  0.06457614     0.11000
H2295       H  0.81278956  0.67444181  0.03900857     0.11000
H2296       H  0.80114322  0.72625017  0.10559632     0.11000
C2297       C  0.97411726  0.87992798  0.11875222    -0.15100
C2298       C  0.47302734  0.85054118  0.13209769     0.07000
C2299       C  0.44367138  0.81434748  0.12773832    -0.15100
C2300       C  0.91555660  0.80797321  0.11079453    -0.15100
C2301       C  0.91688037  0.83755115  0.09746280     0.07000
C2302       C  0.94672715  0.87347017  0.10145235    -0.15100
H2303       H  0.99620947  0.90811698  0.12178970     0.11000
H2304       H  0.44186405  0.79123010  0.13800626     0.11000
H2305       H  0.89297550  0.77997034  0.10796974     0.11000
H2306       H  0.94847608  0.89683243  0.09152762     0.11000
C2307       C  0.47588048  0.71778395  0.18701083    -0.15100
C2308       C  0.96308734  0.73940225  0.19890867     0.07000
C2309       C  0.92525761  0.72388415  0.20321668    -0.15100
C2310       C  0.90055737  0.68809516  0.19448251    -0.15100
C2311       C  0.91340501  0.66742937  0.18129495     0.07000
C2312       C  0.95135765  0.68231249  0.17825525    -0.15100
H2313       H  0.50499528  0.72885946  0.18363435     0.11000
H2314       H  0.91469116  0.74001437  0.21217114     0.11000
H2315       H  0.87133958  0.67722420  0.19713679     0.11000
H2316       H  0.96211348  0.66695171  0.16846959     0.11000
C2317       C  0.69044890  0.95774151  0.13263781    -0.15100
C2318       C  0.70801472  0.49531876  0.13943306     0.07000
C2319       C  0.68845384  0.50784288  0.15414141    -0.15100
C2320       C  0.65302723  0.48345152  0.16267344    -0.15100
C2321       C  0.63580340  0.94569894  0.15668941     0.07000
C2322       C  0.65461617  0.93312674  0.14119394    -0.15100
H2323       H  0.70479463  0.94719934  0.12150914     0.11000
H2324       H  0.70092100  0.53665111  0.15971554     0.11000
H2325       H  0.63945174  0.49413434  0.17447645     0.11000
H2326       H  0.64206363  0.90407060  0.13627915     0.11000
C2327       C  0.61791581  0.44458982  0.27881197    -0.15100
C2328       C  0.59449068  0.94979473  0.26274812     0.07000
C2329       C  0.59473821  0.98361499  0.26366020    -0.15100
C2330       C  0.61654241  0.51091662  0.28096941    -0.15100
C2331       C  0.63932687  0.50548058  0.29733777     0.07000
C2332       C  0.64048703  0.47242835  0.29581156    -0.15100
H2333       H  0.61856790  0.41894638  0.27835415     0.11000
H2334       H  0.57718023  0.98857519  0.25147734     0.11000
H2335       H  0.61516385  0.53616335  0.28187300     0.11000
H2336       H  0.65756703  0.46750103  0.30848511     0.11000
C2337       C  0.82022442  0.81335575  0.37461219    -0.15100
C2338       C  0.82572907  0.84916938  0.37072158     0.07000
C2339       C  0.85312938  0.87881462  0.38452884    -0.15100
C2340       C  0.87492452  0.87312652  0.40150814    -0.15100
C2341       C  0.87059982  0.83771953  0.40475748     0.07000
C2342       C  0.84280191  0.80776551  0.39128143    -0.15100
H2343       H  0.79952735  0.79004914  0.36406365     0.11000
H2344       H  0.85807278  0.90671940  0.38193666     0.11000
H2345       H  0.89591716  0.89673440  0.41168265     0.11000
H2346       H  0.83850275  0.78006869  0.39367971     0.11000
C2347       C  0.77739347  0.94583644  0.22451062    -0.15100
C2348       C  0.80600668  0.94976246  0.24012291     0.07000
C2349       C  0.84018723  0.48279367  0.23893682    -0.15100
C2350       C  0.84619861  0.51041148  0.22179161    -0.15100
C2351       C  0.81793159  0.50625740  0.20586564     0.07000
C2352       C  0.78317449  0.47403561  0.20774027    -0.15100
H2353       H  0.75062766  0.92089131  0.22517390     0.11000
H2354       H  0.86273972  0.48683348  0.25076351     0.11000
H2355       H  0.87324637  0.53493116  0.22071387     0.11000
H2356       H  0.76101820  0.46997716  0.19549540     0.11000
C2357       C  0.90950198  0.87455298  0.27735638    -0.15100
C2358       C  0.88112151  0.87286256  0.26279090     0.07000
C2359       C  0.88386425  0.87243204  0.23667038    -0.15100
C2360       C  0.91439814  0.87356648  0.22529195    -0.15100
C2361       C  0.94227044  0.87422424  0.23985907     0.07000
C2362       C  0.93960566  0.87477375  0.26597900    -0.15100
H2363       H  0.90806885  0.87500608  0.29746823     0.11000
H2364       H  0.86244139  0.87152346  0.22499591     0.11000
H2365       H  0.91583952  0.87309823  0.20518219     0.11000
H2366       H  0.96100736  0.87558681  0.27763135     0.11000
C2367       C  0.64309998  0.84050904  0.27704316    -0.15100
C2368       C  0.67163910  0.83810356  0.26541094     0.07000
C2369       C  0.67272226  0.83695611  0.23916774    -0.15100
C2370       C  0.64538912  0.83751155  0.22481407    -0.15100
C2371       C  0.61618249  0.83857745  0.23647602     0.07000
C2372       C  0.61541459  0.84042084  0.26268664    -0.15100
H2373       H  0.64183651  0.84177286  0.29712463     0.11000
H2374       H  0.69488067  0.83574243  0.22965133     0.11000
H2375       H  0.64666368  0.83631230  0.20472826     0.11000
H2376       H  0.59333709  0.84188302  0.27212981     0.11000
C2377       C  0.74302959  0.71943729  0.29473751    -0.15100
C2378       C  0.72405480  0.73747045  0.30255478     0.07000
C2379       C  0.69263546  0.71797348  0.31769831    -0.15100
C2380       C  0.68210866  0.68268999  0.32643863    -0.15100
C2381       C  0.70248229  0.66558642  0.32020203     0.07000
C2382       C  0.73228882  0.68369048  0.30349772    -0.15100
H2383       H  0.76710111  0.73356958  0.28294875     0.11000
H2384       H  0.67682444  0.73062941  0.32378432     0.11000
H2385       H  0.65874050  0.66941907  0.33891398     0.11000
H2386       H  0.74825988  0.67092357  0.29806237     0.11000
C2387       C  0.72837257  0.93270214  0.36165780    -0.15100
C2388       C  0.76066052  0.94517518  0.34729663     0.07000
C2389       C  0.78305948  0.48329004  0.34326191    -0.15100
C2390       C  0.77252980  0.50813108  0.35209553    -0.15100
C2391       C  0.73917064  0.49563265  0.36511669     0.07000
C2392       C  0.71769356  0.95773667  0.37049142    -0.15100
H2393       H  0.71056860  0.90341714  0.36520476     0.11000
H2394       H  0.80825169  0.49390140  0.33258066     0.11000
H2395       H  0.79004914  0.53724692  0.34785850     0.11000
H2396       H  0.69188177  0.94728046  0.38039689     0.11000
C2397       C  0.85503922  0.05667171  0.80738373    -0.15100
C2398       C  0.82914262  0.02019725  0.80036429     0.07000
C2399       C  0.82238189  0.51139846  0.77497908    -0.15100
C2400       C  0.84283052  0.53830993  0.75694493    -0.15100
C2401       C  0.86931391  0.57461499  0.76410395     0.07000
C2402       C  0.87448727  0.58372179  0.78946676    -0.15100
H2403       H  0.86051327  0.06416011  0.82687847     0.11000
H2404       H  0.80253903  0.98347648  0.76915681     0.11000
H2405       H  0.83816724  0.53076507  0.73743084     0.11000
H2406       H  0.89468219  0.61143799  0.79545971     0.11000
C2407       C  0.69430817  0.01757167  0.84586285    -0.15100
C2408       C  0.72302578  0.02938580  0.86324378     0.07000
C2409       C  0.73753302  0.56462941  0.87408991    -0.15100
C2410       C  0.72545156  0.58874437  0.86604120    -0.15100
C2411       C  0.69837966  0.57761735  0.84734653     0.07000
C2412       C  0.68197348  0.04127213  0.83811587    -0.15100
H2413       H  0.68221799  0.99021772  0.83751991     0.11000
H2414       H  0.75956512  0.57423400  0.88759296     0.11000
H2415       H  0.73832497  0.61654496  0.87368924     0.11000
H2416       H  0.66087712  0.03168179  0.82391269     0.11000
C2417       C  0.70823632  0.79690542  0.80500469    -0.15100
C2418       C  0.73379594  0.78461084  0.80442230     0.07000
C2419       C  0.77006690  0.80881857  0.81242438    -0.15100
C2420       C  0.78035734  0.84417310  0.82156000    -0.15100
C2421       C  0.75441074  0.85589741  0.82334797     0.07000
C2422       C  0.71836691  0.83212654  0.81457894    -0.15100
H2423       H  0.68000533  0.77859803  0.79933013     0.11000
H2424       H  0.79028912  0.79991987  0.81228196     0.11000
H2425       H  0.80825102  0.86174835  0.82814111     0.11000
H2426       H  0.69774705  0.84044286  0.81563004     0.11000
C2427       C  0.79660298  0.86672595  0.92635855    -0.15100
C2428       C  0.81002967  0.90488275  0.93006067     0.07000
C2429       C  0.82861811  0.92147572  0.95222821    -0.15100
C2430       C  0.83471492  0.90075464  0.96998678    -0.15100
C2431       C  0.82150658  0.86264081  0.96638641     0.07000
C2432       C  0.80174021  0.84561684  0.94456968    -0.15100
H2433       H  0.78195236  0.85323328  0.90943935     0.11000
H2434       H  0.83931601  0.95077427  0.95553925     0.11000
H2435       H  0.84969569  0.91460825  0.98673540     0.11000
H2436       H  0.79114472  0.81633213  0.94133685     0.11000
C2437       C  0.97802017  0.64329327  0.05447744    -0.15100
C2438       C  0.47387770  0.66749278  0.03849312     0.07000
C2439       C  0.44180733  0.67008291  0.04051717    -0.15100
C2440       C  0.91401366  0.64807736  0.05765175    -0.15100
C2441       C  0.91809978  0.62371486  0.07360209     0.07000
C2442       C  0.95078468  0.62212064  0.07205643    -0.15100
H2443       H  0.00236710  0.64061858  0.05327703     0.11000
H2444       H  0.43766591  0.68814527  0.02822185     0.11000
H2445       H  0.88931747  0.65016648  0.05844747     0.11000
H2446       H  0.95491445  0.60375134  0.08404447     0.11000
C2447       C  0.58590014  0.65214118  0.90214227    -0.15100
C2448       C  0.59155438  0.68801910  0.90583797     0.07000
C2449       C  0.61940812  0.71745309  0.89216399    -0.15100
C2450       C  0.64102399  0.71097336  0.87504214    -0.15100
C2451       C  0.63444769  0.67480968  0.87084061     0.07000
C2452       C  0.60670839  0.64555232  0.88463620    -0.15100
H2453       H  0.56466175  0.62892060  0.91239645     0.11000
H2454       H  0.62454872  0.74542848  0.89481607     0.11000
H2455       H  0.66194698  0.73396662  0.86445580     0.11000
H2456       H  0.60091538  0.61739060  0.88173956     0.11000
C2457       C  0.93913318  0.57974408  0.92965938    -0.15100
C2458       C  0.94083658  0.61412971  0.93150074     0.07000
C2459       C  0.91372965  0.61909010  0.91988624    -0.15100
C2460       C  0.88486348  0.58986364  0.90705272    -0.15100
C2461       C  0.88322290  0.55549393  0.90497152     0.07000
C2462       C  0.91070470  0.55069753  0.91623212    -0.15100
H2463       H  0.46033364  0.57572945  0.93799481     0.11000
H2464       H  0.91494012  0.64564977  0.92078050     0.11000
H2465       H  0.86385983  0.59414670  0.89866187     0.11000
H2466       H  0.90968836  0.52425170  0.91514723     0.11000
C2467       C  0.61008493  0.83647548  0.91098775    -0.15100
C2468       C  0.61493897  0.82943105  0.93595016     0.07000
C2469       C  0.64871294  0.85205587  0.94757750    -0.15100
C2470       C  0.67744681  0.88044378  0.93431615    -0.15100
C2471       C  0.67306681  0.88666038  0.90909986     0.07000
C2472       C  0.63895637  0.86475302  0.89764428    -0.15100
H2473       H  0.58420352  0.81944210  0.90146034     0.11000
H2474       H  0.65324242  0.84723406  0.96667529     0.11000
H2475       H  0.70352926  0.89692269  0.94374531     0.11000
H2476       H  0.63478917  0.86904969  0.87835418     0.11000
C2477       C  0.92695988  0.74989537  0.96571197    -0.15100
C2478       C  0.96480758  0.77216578  0.96999072     0.07000
C2479       C  0.97801135  0.80710727  0.98137539    -0.15100
C2480       C  0.95370190  0.81819733  0.99025472    -0.15100
C2481       C  0.91562573  0.79465551  0.98785404     0.07000
C2482       C  0.90254474  0.76103744  0.97458973    -0.15100
H2483       H  0.91609147  0.72292578  0.95697290     0.11000
H2484       H  0.00722038  0.82519591  0.98451470     0.11000
H2485       H  0.96467340  0.84453360  0.99989134     0.11000
H2486       H  0.87328515  0.74241740  0.97217015     0.11000
C2487       C  0.65516044  0.71884055  0.00432473    -0.15100
C2488       C  0.63671030  0.73706642  0.01265664     0.07000
C2489       C  0.65447229  0.76613357  0.03017538    -0.15100
C2490       C  0.69039034  0.77731915  0.03850622    -0.15100
C2491       C  0.70915252  0.75968020  0.02938946     0.07000
C2492       C  0.69064295  0.72989260  0.01253920    -0.15100
H2493       H  0.64251548  0.69642774  0.99089404     0.11000
H2494       H  0.64094126  0.78076325  0.03700292     0.11000
H2495       H  0.70377885  0.80030273  0.05144331     0.11000
H2496       H  0.70390443  0.71532283  0.00510494     0.11000
loop_ 
_geom_bond_atom_site_label_1 
_geom_bond_atom_site_label_2 
_geom_bond_distance 
_geom_bond_site_symmetry_2 
_ccdc_geom_bond_type 
O1           Al9   1.908   1_655  S
O1         C1264   1.260       .  A
C2           O12   1.268       .  A
C2            O3   1.257       .  A
C2          C596   1.472       .  S
O3           Al5   1.881       .  S
O4           Al5   1.921       .  S
O4            C6   1.266       .  A
Al5          O13   1.927   1_455  S
Al5        O1263   1.875   1_455  S
Al5          O14   1.788       .  S
C6           O19   1.264       .  A
C6          C576   1.485       .  S
O7           Al9   1.902       .  S
O7           C17   1.259   1_556  A
O8          Al18   1.922   1_554  S
O8           C21   1.268       .  A
Al9          O22   1.930   1_556  S
Al9          O19   1.912       .  S
Al9          O14   1.788       .  S
O10         Al18   1.913   1_554  S
O10          C17   1.256       .  A
O11         Al18   1.894       .  S
O11          C20   1.258   1_455  A
O12         Al18   1.919       .  S
O13          C20   1.266       .  A
O14         Al18   1.789       .  S
O15       Al1253   1.875       .  S
O15          C16   1.253       .  A
C16        O1249   1.260       .  A
C16         C586   1.468       .  S
C17         C616   1.490       .  S
C20        C1854   1.479       .  S
C21          O22   1.268       .  A
C21         C566   1.489   1_455  S
O23         Al31   1.943       .  S
O23         C662   1.264       .  A
C24          O34   1.271       .  A
C24          O25   1.252       .  A
C24         C599   1.472       .  S
O25         Al27   1.836       .  S
O26         Al27   1.962       .  S
O26          C28   1.276       .  A
Al27         O35   1.938       .  S
Al27         O37   1.881       .  S
Al27         O36   1.779       .  S
C28          O41   1.266       .  A
C28         C556   1.484       .  S
O29         Al31   1.933       .  S
O29          C39   1.261       .  A
O30         Al40   1.963       .  S
O30          C43   1.277       .  A
Al31         O44   1.880       .  S
Al31         O41   1.901       .  S
Al31         O36   1.782       .  S
O32         Al40   1.879       .  S
O32          C39   1.250       .  A
O33         Al40   1.855       .  S
O33          C42   1.250       .  A
O34         Al40   1.941       .  S
O35          C42   1.262       .  A
O36         Al40   1.779       .  S
O37         C662   1.254       .  A
C38         O647   1.264   1_545  A
C38         O661   1.254       .  A
C38         C589   1.472       .  S
C39         C549   1.485       .  S
C42         C536   1.476       .  S
C43          O44   1.265       .  A
C43         C526   1.479       .  S
O45         Al53   1.913       .  S
O45          C60   1.260       .  A
C46          O56   1.269       .  A
C46          O47   1.257       .  A
C46         C496   1.473       .  S
O47         Al49   1.883       .  S
O48         Al49   1.919       .  S
O48          C50   1.267       .  A
Al49         O57   1.941       .  S
Al49         O59   1.882       .  S
Al49         O58   1.786       .  S
C50          O63   1.267       .  A
C50         C476   1.489       .  S
O51         Al53   1.905       .  S
O51          C61   1.259       .  A
O52         Al62   1.926       .  S
O52          C65   1.269       .  A
Al53         O66   1.918       .  S
Al53         O63   1.922       .  S
Al53         O58   1.778       .  S
O54         Al62   1.903       .  S
O54          C61   1.255       .  A
O55         Al62   1.892       .  S
O55          C64   1.260       .  A
O56         Al62   1.931       .  S
O57          C64   1.271       .  A
O58         Al62   1.783       .  S
O59          C60   1.253       .  A
C60         C486   1.475       .  S
C61         C516   1.486       .  S
C64         C506   1.485       .  S
C65          O66   1.268       .  A
C65         C466   1.487       .  S
O67         Al75   1.916   1_655  S
O67        C1330   1.261       .  A
C68          O78   1.269       .  A
C68          O69   1.257       .  A
C68         C499   1.471       .  S
O69         Al71   1.885       .  S
O70         Al71   1.909       .  S
O70          C72   1.265       .  A
Al71         O79   1.932   1_455  S
Al71       O1329   1.881   1_455  S
Al71         O80   1.784       .  S
C72          O85   1.267       .  A
C72         C456   1.483       .  S
O73         Al75   1.906       .  S
O73          C83   1.259       .  A
O74         Al84   1.922       .  S
O74          C87   1.269       .  A
Al75         O88   1.921       .  S
Al75         O85   1.917       .  S
Al75         O80   1.776       .  S
O76         Al84   1.903       .  S
O76          C83   1.255       .  A
O77         Al84   1.893       .  S
O77          C86   1.260   1_455  A
O78         Al84   1.928       .  S
O79          C86   1.269       .  A
O80         Al84   1.783       .  S
O81       Al1319   1.881       .  S
O81          C82   1.253       .  A
C82        O1315   1.261       .  A
C82         C489   1.474       .  S
C83         C449   1.486       .  S
C86        C1684   1.477       .  S
C87          O88   1.269       .  A
C87         C426   1.487   1_455  S
O89         Al97   1.907       .  S
O89         C104   1.258       .  A
C90         O100   1.270       .  A
C90          O91   1.258       .  A
C90         C416   1.471       .  S
O91         Al93   1.885       .  S
O92         Al93   1.923       .  S
O92          C94   1.268       .  A
Al93        O101   1.948       .  S
Al93        O103   1.875       .  S
Al93        O102   1.781       .  S
C94         O107   1.269       .  A
C94         C569   1.494       .  S
O95         Al97   1.899       .  S
O95         C105   1.258       .  A
O96        Al106   1.921       .  S
O96         C109   1.268       .  A
Al97        O110   1.927       .  S
Al97        O107   1.931       .  S
Al97        O102   1.778       .  S
O98        Al106   1.896       .  S
O98         C105   1.254       .  A
O99        Al106   1.890       .  S
O99         C108   1.259       .  A
O100       Al106   1.929       .  S
O101        C108   1.271       .  A
O102       Al106   1.782       .  S
O103        C104   1.252       .  A
C104       C1030   1.465   1_545  S
C105        C439   1.478       .  S
C108        C446   1.487   1_545  S
C109        O110   1.269       .  A
C109        C479   1.485       .  S
O111       Al119   1.903       .  S
O111        C126   1.256       .  A
C112        O122   1.269       .  A
C112        O113   1.254       .  A
C112        C419   1.475       .  S
O113       Al115   1.879       .  S
O114       Al115   1.929       .  S
O114        C116   1.270       .  A
Al115       O123   1.948       .  S
Al115       O125   1.869       .  S
Al115       O124   1.791       .  S
C116        O129   1.268       .  A
C116        C429   1.486       .  S
O117       Al119   1.911       .  S
O117        C127   1.259       .  A
O118       Al128   1.930   1_556  S
O118        C131   1.271       .  A
Al119       O132   1.905   1_554  S
Al119       O129   1.915       .  S
Al119       O124   1.782       .  S
O120       Al128   1.883   1_556  S
O120        C127   1.251   1_556  A
O121       Al128   1.894       .  S
O121        C130   1.261       .  A
O122       Al128   1.937       .  S
O123        C130   1.272       .  A
O124       Al128   1.787       .  S
O125        C126   1.249       .  A
C126        C409   1.469       .  S
C127        C609   1.483   1_554  S
C130        C619   1.492       .  S
C131        O132   1.266       .  A
C131        C559   1.488       .  S
O133       Al141   1.909       .  S
O133        C148   1.259       .  A
C134        O144   1.270       .  A
C134        O135   1.259       .  A
C134        C396   1.480       .  S
O135       Al137   1.892       .  S
O136       Al137   1.907       .  S
O136        C138   1.267       .  A
Al137       O145   1.931       .  S
Al137       O147   1.869       .  S
Al137       O146   1.785       .  S
C138        O151   1.266       .  A
C138        C379   1.480       .  S
O139       Al141   1.891       .  S
O139        C149   1.256       .  A
O140       Al150   1.924       .  S
O140        C153   1.270       .  A
Al141       O154   1.916       .  S
Al141       O151   1.913       .  S
Al141       O146   1.781       .  S
O142       Al150   1.904       .  S
O142        C149   1.254       .  A
O143       Al150   1.908       .  S
O143        C152   1.260       .  A
O144       Al150   1.935       .  S
O145        C152   1.267       .  A
O146       Al150   1.788       .  S
O147        C148   1.250       .  A
C148        C389   1.471       .  S
C149        C539   1.481       .  S
C152        C546   1.480       .  S
C153        O154   1.268       .  A
C153        C579   1.485       .  S
O155       Al163   1.910       .  S
O155        C170   1.258       .  A
C156        O166   1.271       .  A
C156        O157   1.259       .  A
C156        C399   1.478       .  S
O157       Al159   1.893       .  S
O158       Al159   1.903       .  S
O158        C160   1.265       .  A
Al159       O167   1.931       .  S
Al159       O169   1.869       .  S
Al159       O168   1.784       .  S
C160        O173   1.266       .  A
C160        C529   1.479       .  S
O161       Al163   1.892       .  S
O161        C171   1.255       .  A
O162       Al172   1.926       .  S
O162        C175   1.270       .  A
Al163       O176   1.927       .  S
Al163       O173   1.920       .  S
Al163       O168   1.780       .  S
O164       Al172   1.907       .  S
O164        C171   1.255       .  A
O165       Al172   1.901       .  S
O165        C174   1.259       .  A
O166       Al172   1.932       .  S
O167        C174   1.267       .  A
O168       Al172   1.786       .  S
O169        C170   1.251       .  A
C170       C1634   1.466       .  S
C171        C366   1.482       .  S
C174        C356   1.477       .  S
C175        O176   1.270       .  A
C175        C349   1.493       .  S
O177       Al185   1.913       .  S
O177        C192   1.259       .  A
C178        O188   1.267       .  A
C178        O179   1.255       .  A
C178        C316   1.469       .  S
O179       Al181   1.880       .  S
O180       Al181   1.930       .  S
O180        C182   1.270       .  A
Al181       O189   1.945       .  S
Al181       O191   1.874       .  S
Al181       O190   1.785       .  S
C182        O195   1.266       .  A
C182        C469   1.488       .  S
O183       Al185   1.913       .  S
O183        C193   1.260       .  A
O184       Al194   1.912       .  S
O184        C197   1.268       .  A
Al185       O198   1.905       .  S
Al185       O195   1.913       .  S
Al185       O190   1.779       .  S
O186       Al194   1.883       .  S
O186        C193   1.251       .  A
O187       Al194   1.897       .  S
O187        C196   1.261       .  A
O188       Al194   1.923       .  S
O189        C196   1.272       .  A
O190       Al194   1.787       .  S
O191        C192   1.251       .  A
C192       C1557   1.473       .  S
C193        C336   1.482       .  S
C196        C326   1.486       .  S
C197        O198   1.266       .  A
C197        C299   1.474       .  S
O199       Al207   1.911       .  S
O199        C214   1.260       .  A
C200        O210   1.268       .  A
C200        O201   1.257       .  A
C200        C319   1.464       .  S
O201       Al203   1.881       .  S
O202       Al203   1.920       .  S
O202        C204   1.268       .  A
Al203       O211   1.942       .  S
Al203       O213   1.878       .  S
Al203       O212   1.783       .  S
C204        O217   1.267       .  A
C204        C286   1.490       .  S
O205       Al207   1.899       .  S
O205        C215   1.259       .  A
O206       Al216   1.914       .  S
O206        C219   1.267       .  A
Al207       O220   1.916       .  S
Al207       O217   1.922       .  S
Al207       O212   1.776       .  S
O208       Al216   1.907       .  S
O208        C215   1.255       .  A
O209       Al216   1.898       .  S
O209        C218   1.261       .  A
O210       Al216   1.922       .  S
O211        C218   1.270       .  A
O212       Al216   1.785       .  S
O213        C214   1.252       .  A
C214        C930   1.470   1_545  S
C215        C509   1.484       .  S
C218        C519   1.485   1_545  S
C219        O220   1.267       .  A
C219        C459   1.476       .  S
O221       Al229   1.950       .  S
O221        C860   1.265       .  A
C222        O232   1.269       .  A
C222        O223   1.252       .  A
C222        C276   1.474       .  S
O223       Al225   1.840       .  S
O224       Al225   1.957       .  S
O224        C226   1.276       .  A
Al225       O233   1.936       .  S
Al225       O235   1.877       .  S
Al225       O234   1.776       .  S
C226        O239   1.266       .  A
C226        C296   1.479       .  S
O227       Al229   1.943       .  S
O227        C237   1.263       .  A
O228       Al238   1.958       .  S
O228        C241   1.276       .  A
Al229       O242   1.878       .  S
Al229       O239   1.892       .  S
Al229       O234   1.784       .  S
O230       Al238   1.870       .  S
O230        C237   1.249       .  A
O231       Al238   1.854       .  S
O231        C240   1.251       .  A
O232       Al238   1.939       .  S
O233        C240   1.263       .  A
O234       Al238   1.779       .  S
O235        C860   1.254       .  A
C236        O845   1.265   1_545  A
C236        O859   1.254       .  A
C236        C266   1.476       .  S
C237        C359   1.483       .  S
C240        C369   1.475       .  S
C241        O242   1.264       .  A
C241        C376   1.474       .  S
O243       Al251   1.910       .  S
O243        C258   1.260       .  A
C244        O254   1.268       .  A
C244        O245   1.259       .  A
C244        C279   1.471       .  S
O245       Al247   1.892       .  S
O246       Al247   1.929       .  S
O246        C248   1.268       .  A
Al247       O255   1.941       .  S
Al247       O257   1.873       .  S
Al247       O256   1.787       .  S
C248        O261   1.265       .  A
C248        C346   1.487       .  S
O249       Al251   1.910       .  S
O249        C259   1.258       .  A
O250       Al260   1.910       .  S
O250        C263   1.266       .  A
Al251       O264   1.934       .  S
Al251       O261   1.913       .  S
Al251       O256   1.789       .  S
O252       Al260   1.899       .  S
O252        C259   1.253       .  A
O253       Al260   1.881       .  S
O253        C262   1.255       .  A
O254       Al260   1.909       .  S
O255        C262   1.267       .  A
O256       Al260   1.788       .  S
O257        C258   1.253       .  A
C258        C269   1.470       .  S
C259        C329   1.487       .  S
C262        C339   1.482       .  S
C263        O264   1.270       .  A
C263        C289   1.483       .  S
C265        C266   1.404       .  A
C265        C270   1.394       .  A
C265        H271   1.083       .  S
C266        C267   1.406       .  A
C267        C268   1.402       .  A
C267        H272   1.083       .  S
C268        C269   1.404       .  A
C268        H273   1.083       .  S
C269        C270   1.402       .  A
C270        H274   1.084       .  S
C275        C276   1.411       .  A
C275        C280   1.391       .  A
C275        H281   1.083       .  S
C276        C277   1.399       .  A
C277        C278   1.396       .  A
C277        H282   1.083       .  S
C278        C279   1.411       .  A
C278        H283   1.084       .  S
C279        C280   1.397       .  A
C280        H284   1.083       .  S
C285        C286   1.408       .  A
C285        C290   1.401       .  A
C285        H291   1.083       .  S
C286        C287   1.407       .  A
C287        C288   1.406       .  A
C287        H292   1.084       .  S
C288        C289   1.407       .  A
C288        H293   1.083       .  S
C289        C290   1.403       .  A
C290        H294   1.084       .  S
C295        C300   1.402       .  A
C295       C1544   1.408       .  A
C295        H301   1.083       .  S
C296        C297   1.403       .  A
C296       C1543   1.408       .  A
C297       C1546   1.397       .  A
C297        H302   1.084       .  S
C298        C299   1.406       .  A
C298       C1545   1.397       .  A
C298        H303   1.083       .  S
C299        C300   1.402       .  A
C300        H304   1.083       .  S
C305        C306   1.409       .  A
C305        C310   1.397       .  A
C305        H311   1.084       .  S
C306        C838   1.470       .  S
C306        C931   1.398       .  A
C307        C930   1.398       .  A
C307        C932   1.396       .  A
C307        H312   1.083       .  S
C308        C309   1.409       .  A
C308        C931   1.396       .  A
C308       H1561   1.083       .  S
C309       C1440   1.473   1_455  S
C309        C310   1.400       .  A
C310        H314   1.083       .  S
H313       C1556   1.083       .  S
C315        C316   1.396       .  A
C315        C320   1.393       .  A
C315        H321   1.083       .  S
C316        C317   1.412       .  A
C317        C318   1.394       .  A
C317        H322   1.083       .  S
C318        C319   1.395       .  A
C318        H323   1.083       .  S
C319        C320   1.410       .  A
C320        H324   1.084       .  S
C325        C330   1.407       .  A
C325       C1574   1.403       .  A
C325        H331   1.084       .  S
C326        C327   1.411       .  A
C326       C1573   1.403       .  A
C327        C328   1.395       .  A
C327        H332   1.083       .  S
C328       C1577   1.400       .  A
C328        H333   1.084       .  S
C329        C330   1.413       .  A
C329       C1576   1.400       .  A
C330        H334   1.083       .  S
C335        C336   1.413       .  A
C335        C340   1.403       .  A
C335        H341   1.083       .  S
C336        C337   1.398       .  A
C337        C338   1.394       .  A
C337        H342   1.083       .  S
C338        C339   1.411       .  A
C338        H343   1.083       .  S
C339        C340   1.401       .  A
C340        H344   1.083       .  S
C345        C346   1.406       .  A
C345       C1598   1.409       .  A
C345        H351   1.083       .  S
C346       C1595   1.405       .  A
C347        C348   1.401       .  A
C347       C1594   1.405       .  A
C347        H352   1.084       .  S
C348        C349   1.407       .  A
C348        H353   1.083       .  S
C349        C350   1.410       .  A
C350       C1593   1.409       .  A
C350        H354   1.083       .  S
C355        C360   1.401       .  A
C355       C1604   1.400   1_455  A
C355        H361   1.083       .  S
C356        C357   1.408       .  A
C356       C1603   1.400       .  A
C357        C358   1.398       .  A
C357        H362   1.083       .  S
C358       C1607   1.401       .  A
C358        H363   1.083       .  S
C359        C360   1.412       .  A
C359       C1606   1.401       .  A
C360        H364   1.083       .  S
C365        C370   1.392       .  A
C365        C990   1.402       .  A
C365        H371   1.084       .  S
C366        C367   1.411       .  A
C366        C989   1.402       .  A
C367        C368   1.405       .  A
C367        H372   1.083       .  S
C368        C993   1.402       .  A
C368        H373   1.083       .  S
C369        C370   1.405       .  A
C369        C992   1.402       .  A
C370        H374   1.084       .  S
C375        C376   1.404       .  A
C375       C1004   1.396       .  A
C375        H381   1.084       .  S
C376       C1001   1.402       .  A
C377        C378   1.404       .  A
C377       C1000   1.402       .  A
C377        H382   1.083   1_545  S
C378        C379   1.410       .  A
C378        H383   1.083       .  S
C379        C380   1.402       .  A
C380        C999   1.396       .  A
C380        H384   1.083       .  S
C385        C386   1.397       .  A
C385        C390   1.396       .  A
C385        H391   1.083       .  S
C386       C1418   1.466   1_455  S
C386       C1635   1.407       .  A
C387       C1634   1.407       .  A
C387       C1636   1.395       .  A
C387        H392   1.084       .  S
C388        C389   1.399       .  A
C388       C1635   1.395       .  A
C388        H393   1.083       .  S
C389        C390   1.410       .  A
C390        H394   1.083       .  S
C395        C396   1.413       .  A
C395        C400   1.398       .  A
C395        H401   1.083       .  S
C396        C397   1.398       .  A
C397        C398   1.399       .  A
C397        H402   1.083       .  S
C398        C399   1.413       .  A
C398        H403   1.083       .  S
C399        C400   1.397       .  A
C400        H404   1.083       .  S
C405        C406   1.397       .  A
C405        C410   1.396       .  A
C405        H411   1.083       .  S
C406        C728   1.465       .  S
C406        C407   1.407       .  A
C407        C408   1.394       .  A
C407       H1036   1.083       .  S
C408        C409   1.398       .  A
C408        H413   1.083       .  S
C409        C410   1.410       .  A
C410        H414   1.083       .  S
H412       C1031   1.083       .  S
C415        C416   1.396       .  A
C415        C420   1.396       .  A
C415        H421   1.083       .  S
C416        C417   1.411       .  A
C417        C418   1.396       .  A
C417        H422   1.084       .  S
C418        C419   1.396       .  A
C418        H423   1.083       .  S
C419        C420   1.414       .  A
C420        H424   1.083       .  S
C425        C430   1.398       .  A
C425       C1674   1.404       .  A
C425        H431   1.084       .  S
C426        C427   1.409       .  A
C426       C1673   1.404       .  A
C427       C1676   1.408       .  A
C427        H432   1.083       .  S
C428        C429   1.407       .  A
C428       C1675   1.408       .  A
C428        H433   1.084       .  S
C429        C430   1.406       .  A
C430        H434   1.083       .  S
C435       C1684   1.409       .  A
C435       C1688   1.392       .  A
C435        H441   1.083   1_655  S
C436       C1334   1.477       .  S
C436        C437   1.401       .  A
C436       C1683   1.409       .  A
C437        C438   1.402       .  A
C437        H442   1.084       .  S
C438        C439   1.411       .  A
C438        H443   1.083       .  S
C439        C440   1.399       .  A
C440       C1683   1.392       .  A
C440        H444   1.084       .  S
C445        C450   1.407       .  A
C445       C1070   1.403       .  A
C445        H451   1.083       .  S
C446        C447   1.411   1_565  A
C446       C1069   1.403       .  A
C447        C448   1.393   1_545  A
C447        H452   1.083       .  S
C448       C1073   1.399       .  A
C448        H453   1.083       .  S
C449        C450   1.413       .  A
C449       C1072   1.399       .  A
C450        H454   1.083       .  S
C455        C460   1.404       .  A
C455       C1080   1.408       .  A
C455        H461   1.083       .  S
C456        C457   1.405       .  A
C456       C1079   1.408       .  A
C457       C1082   1.396       .  A
C457        H462   1.083       .  S
C458        C459   1.402       .  A
C458       C1081   1.396   1_545  A
C458        H463   1.083       .  S
C459        C460   1.405   1_545  A
C460        H464   1.083       .  S
C465        C466   1.409       .  A
C465        C470   1.409       .  A
C465        H471   1.082       .  S
C466        C467   1.404       .  A
C467        C468   1.397       .  A
C467        H472   1.084       .  S
C468        C469   1.406       .  A
C468        H473   1.083       .  S
C469        C470   1.407       .  A
C470        H474   1.084       .  S
C475        C476   1.408       .  A
C475       C1104   1.407       .  A
C475        H481   1.084       .  S
C476       C1101   1.407       .  A
C477        C478   1.400   1_565  A
C477       C1100   1.407       .  A
C477        H482   1.083       .  S
C478        C479   1.404       .  A
C478        H483   1.084       .  S
C479        C480   1.407   1_545  A
C480       C1099   1.407       .  A
C480        H484   1.083       .  S
C485        C486   1.400       .  A
C485        C490   1.398       .  A
C485        H491   1.083       .  S
C486        C487   1.409       .  A
C487        C488   1.397       .  A
C487        H492   1.083       .  S
C488        C489   1.399       .  A
C488        H493   1.083       .  S
C489        C490   1.409       .  A
C490        H494   1.084       .  S
C495        C496   1.396       .  A
C495        C500   1.396       .  A
C495        H501   1.083       .  S
C496        C497   1.413       .  A
C497        C498   1.395       .  A
C497        H502   1.083       .  S
C498        C499   1.395       .  A
C498        H503   1.083       .  S
C499        C500   1.412       .  A
C500        H504   1.083       .  S
C505        C506   1.403       .  A
C505        C510   1.407       .  A
C505        H511   1.083       .  S
C506        C507   1.410       .  A
C507        C508   1.391       .  A
C507        H512   1.083       .  S
C508        C509   1.399       .  A
C508        H513   1.083       .  S
C509        C510   1.412       .  A
C510        H514   1.083       .  S
C515        C516   1.412       .  A
C515        C520   1.406       .  A
C515        H521   1.083       .  S
C516       C1141   1.401       .  A
C517        C518   1.394   1_565  A
C517       C1140   1.401       .  A
C517        H522   1.083       .  S
C518        C519   1.410   1_545  A
C518        H523   1.083       .  S
C519       C1144   1.403       .  A
C520       C1143   1.403       .  A
C520        H524   1.083       .  S
C525        C526   1.406       .  A
C525       C1154   1.397       .  A
C525        H531   1.084       .  S
C526       C1151   1.404       .  A
C527        C528   1.406       .  A
C527       C1150   1.404       .  A
C527       H1156   1.083   1_545  S
C528        C529   1.409       .  A
C528        H533   1.083       .  S
C529        C530   1.401       .  A
C530       C1149   1.397       .  A
C530        H534   1.083       .  S
H532       C1151   1.083       .  S
C535        C536   1.406       .  A
C535        C540   1.392       .  A
C535        H541   1.084       .  S
C536       C1161   1.402       .  A
C537        C538   1.405       .  A
C537       C1160   1.402       .  A
C537        H542   1.083       .  S
C538        C539   1.411       .  A
C538        H543   1.083       .  S
C539       C1164   1.401       .  A
C540       C1163   1.401       .  A
C540        H544   1.083       .  S
C545        C546   1.402       .  A
C545        C550   1.403       .  A
C545        H551   1.083       .  S
C546        C547   1.408       .  A
C547        C548   1.398       .  A
C547        H552   1.083       .  S
C548        C549   1.402       .  A
C548        H553   1.083       .  S
C549        C550   1.411       .  A
C550        H554   1.083       .  S
C555        C556   1.409       .  A
C555        C560   1.408       .  A
C555        H561   1.083       .  S
C556        C557   1.401       .  A
C557        C558   1.399       .  A
C557        H562   1.083       .  S
C558        C559   1.408       .  A
C558        H563   1.083       .  S
C559        C560   1.405       .  A
C560        H564   1.083       .  S
C565        C570   1.404       .  A
C565       C1814   1.405       .  A
C565        H571   1.084       .  S
C566        C567   1.407       .  A
C566       C1813   1.405       .  A
C567       C1816   1.407       .  A
C567        H572   1.083       .  S
C568        C569   1.408       .  A
C568       C1815   1.407       .  A
C568        H573   1.084       .  S
C569        C570   1.408       .  A
C570        H574   1.083       .  S
C575        C576   1.405       .  A
C575        C580   1.398       .  A
C575        H581   1.083       .  S
C576        C577   1.407       .  A
C577        C578   1.407       .  A
C577        H582   1.083       .  S
C578        C579   1.407       .  A
C578        H583   1.083       .  S
C579        C580   1.405       .  A
C580        H584   1.083       .  S
C585        C586   1.402       .  A
C585        C590   1.400       .  A
C585       H1839   1.083       .  S
C586        C587   1.404       .  A
C587        C588   1.395       .  A
C587        H592   1.083       .  S
C588        C589   1.403       .  A
C588        H593   1.084       .  S
C589        C590   1.405       .  A
C590        H594   1.083       .  S
H591       C1833   1.083       .  S
C595        C596   1.413       .  A
C595        C600   1.395       .  A
C595        H601   1.083       .  S
C596        C597   1.396       .  A
C597        C598   1.392       .  A
C597        H602   1.083       .  S
C598        C599   1.412       .  A
C598        H603   1.083       .  S
C599        C600   1.397       .  A
C600        H604   1.083       .  S
C605        C606   1.400       .  A
C605        C610   1.402       .  A
C605        H611   1.084       .  S
C606       C1268   1.479       .  S
C606        C607   1.409       .  A
C607        C608   1.396       .  A
C607        H612   1.083       .  S
C608        C609   1.401       .  A
C608        H613   1.084       .  S
C609        C610   1.412       .  A
C610        H614   1.083       .  S
C615        C616   1.400       .  A
C615        C620   1.393       .  A
C615        H621   1.083   1_554  S
C616        C617   1.413       .  A
C617        C618   1.410       .  A
C617        H622   1.083       .  S
C618        C619   1.405       .  A
C618        H623   1.083       .  S
C619        C620   1.411       .  A
C620        H624   1.083       .  S
O625       Al633   1.908   1_655  S
O625       C1888   1.260       .  A
C626        O636   1.268       .  A
C626        O627   1.257       .  A
C626       C1220   1.472       .  S
O627       Al629   1.881       .  S
O628       Al629   1.921       .  S
O628        C630   1.266       .  A
Al629       O637   1.927   1_455  S
Al629      O1887   1.875   1_455  S
Al629       O638   1.788       .  S
C630        O643   1.264       .  A
C630       C1200   1.485       .  S
O631       Al633   1.902       .  S
O631        C641   1.259   1_556  A
O632       Al642   1.922   1_554  S
O632        C645   1.268       .  A
Al633       O646   1.930   1_556  S
Al633       O643   1.912       .  S
Al633       O638   1.788       .  S
O634       Al642   1.913   1_554  S
O634        C641   1.256       .  A
O635       Al642   1.894       .  S
O635        C644   1.258   1_455  A
O636       Al642   1.919       .  S
O637        C644   1.266       .  A
O638       Al642   1.789       .  S
O639      Al1877   1.875       .  S
O639        C640   1.253       .  A
C640       O1873   1.260       .  A
C640       C1210   1.468       .  S
C641       C1240   1.490       .  S
C644       C2478   1.479       .  S
C645        O646   1.268       .  A
C645       C1190   1.489   1_455  S
O647       Al655   1.943       .  S
C648        O658   1.271       .  A
C648        O649   1.252       .  A
C648       C1223   1.472       .  S
O649       Al651   1.836       .  S
O650       Al651   1.962       .  S
O650        C652   1.276       .  A
Al651       O659   1.938   1_565  S
Al651       O661   1.881   1_565  S
Al651       O660   1.779       .  S
C652        O665   1.266       .  A
C652       C1180   1.484       .  S
O653       Al655   1.933       .  S
O653        C663   1.261       .  A
O654       Al664   1.963       .  S
O654        C667   1.277       .  A
Al655       O668   1.880       .  S
Al655       O665   1.901       .  S
Al655       O660   1.782       .  S
O656       Al664   1.879       .  S
O656        C663   1.250       .  A
O657       Al664   1.855       .  S
O657        C666   1.250   1_565  A
O658       Al664   1.941       .  S
O659        C666   1.262       .  A
O660       Al664   1.779       .  S
C662       C1213   1.472       .  S
C663       C1173   1.485       .  S
C666       C1160   1.476       .  S
C667        O668   1.265       .  A
C667       C1150   1.479   1_565  S
O669       Al677   1.913       .  S
O669        C684   1.260       .  A
C670        O680   1.269       .  A
C670        O671   1.257       .  A
C670       C1120   1.473       .  S
O671       Al673   1.883       .  S
O672       Al673   1.919       .  S
O672        C674   1.267       .  A
Al673       O681   1.941       .  S
Al673       O683   1.882       .  S
Al673       O682   1.786       .  S
C674        O687   1.267       .  A
C674       C1100   1.489       .  S
O675       Al677   1.905       .  S
O675        C685   1.259       .  A
O676       Al686   1.926       .  S
O676        C689   1.269       .  A
Al677       O690   1.918       .  S
Al677       O687   1.922       .  S
Al677       O682   1.778       .  S
O678       Al686   1.903       .  S
O678        C685   1.255       .  A
O679       Al686   1.892       .  S
O679        C688   1.260       .  A
O680       Al686   1.931       .  S
O681        C688   1.271       .  A
O682       Al686   1.783       .  S
O683        C684   1.253       .  A
C684       C1110   1.475       .  S
C685       C1140   1.486       .  S
C688       C1130   1.485       .  S
C689        O690   1.268       .  A
C689       C1090   1.487       .  S
O691       Al699   1.916   1_655  S
O691       C1954   1.261       .  A
C692        O702   1.269       .  A
C692        O693   1.257       .  A
C692       C1123   1.471       .  S
O693       Al695   1.885       .  S
O694       Al695   1.909       .  S
O694        C696   1.265       .  A
Al695       O703   1.932   1_455  S
Al695      O1953   1.881   1_455  S
Al695       O704   1.784       .  S
C696        O709   1.267       .  A
C696       C1080   1.483       .  S
O697       Al699   1.906       .  S
O697        C707   1.259       .  A
O698       Al708   1.922       .  S
O698        C711   1.269       .  A
Al699       O712   1.921       .  S
Al699       O709   1.917       .  S
Al699       O704   1.776       .  S
O700       Al708   1.903       .  S
O700        C707   1.255       .  A
O701       Al708   1.893       .  S
O701        C710   1.260   1_455  A
O702       Al708   1.928       .  S
O703        C710   1.269       .  A
O704       Al708   1.783       .  S
O705      Al1943   1.881       .  S
O705        C706   1.253       .  A
C706       O1939   1.261       .  A
C706       C1113   1.474       .  S
C707       C1073   1.486       .  S
C710       C2308   1.477       .  S
C711        O712   1.269       .  A
C711       C1050   1.487   1_455  S
O713       Al721   1.907       .  S
O713        C728   1.258       .  A
C714        O724   1.270       .  A
C714        O715   1.258       .  A
C714       C1040   1.471       .  S
O715       Al717   1.885       .  S
O716       Al717   1.923       .  S
O716        C718   1.268       .  A
Al717       O725   1.948       .  S
Al717       O727   1.875       .  S
Al717       O726   1.781       .  S
C718        O731   1.269       .  A
C718       C1193   1.494       .  S
O719       Al721   1.899       .  S
O719        C729   1.258       .  A
O720       Al730   1.921       .  S
O720        C733   1.268       .  A
Al721       O734   1.927       .  S
Al721       O731   1.931       .  S
Al721       O726   1.778       .  S
O722       Al730   1.896       .  S
O722        C729   1.254       .  A
O723       Al730   1.890       .  S
O723        C732   1.259       .  A
O724       Al730   1.929       .  S
O725        C732   1.271       .  A
O726       Al730   1.782       .  S
O727        C728   1.252       .  A
C729       C1063   1.478       .  S
C732       C1070   1.487       .  S
C733        O734   1.269       .  A
C733       C1103   1.485       .  S
O735       Al743   1.903       .  S
O735        C750   1.256       .  A
C736        O746   1.269       .  A
C736        O737   1.254       .  A
C736       C1043   1.475       .  S
O737       Al739   1.879       .  S
O738       Al739   1.929       .  S
O738        C740   1.270       .  A
Al739       O747   1.948       .  S
Al739       O749   1.869       .  S
Al739       O748   1.791       .  S
C740        O753   1.268       .  A
C740       C1053   1.486       .  S
O741       Al743   1.911       .  S
O741        C751   1.259       .  A
O742       Al752   1.930   1_556  S
O742        C755   1.271       .  A
Al743       O756   1.905   1_554  S
Al743       O753   1.915       .  S
Al743       O748   1.782       .  S
O744       Al752   1.883   1_556  S
O744        C751   1.251   1_556  A
O745       Al752   1.894       .  S
O745        C754   1.261       .  A
O746       Al752   1.937       .  S
O747        C754   1.272       .  A
O748       Al752   1.787       .  S
O749        C750   1.249       .  A
C750       C1033   1.469       .  S
C751       C1233   1.483   1_554  S
C754       C1243   1.492       .  S
C755        O756   1.266       .  A
C755       C1183   1.488       .  S
O757       Al765   1.909       .  S
O757        C772   1.259       .  A
C758        O768   1.270       .  A
C758        O759   1.259       .  A
C758       C1020   1.480       .  S
O759       Al761   1.892       .  S
O760       Al761   1.907       .  S
O760        C762   1.267       .  A
Al761       O769   1.931       .  S
Al761       O771   1.869       .  S
Al761       O770   1.785       .  S
C762        O775   1.266       .  A
C762       C1003   1.480       .  S
O763       Al765   1.891       .  S
O763        C773   1.256       .  A
O764       Al774   1.924       .  S
O764        C777   1.270       .  A
Al765       O778   1.916       .  S
Al765       O775   1.913       .  S
Al765       O770   1.781       .  S
O766       Al774   1.904       .  S
O766        C773   1.254       .  A
O767       Al774   1.908       .  S
O767        C776   1.260       .  A
O768       Al774   1.935       .  S
O769        C776   1.267       .  A
O770       Al774   1.788       .  S
O771        C772   1.250       .  A
C772       C1013   1.471       .  S
C773       C1163   1.481       .  S
C776       C1170   1.480       .  S
C777        O778   1.268       .  A
C777       C1203   1.485       .  S
O779       Al787   1.910       .  S
O779        C794   1.258       .  A
C780        O790   1.271       .  A
C780        O781   1.259       .  A
C780       C1023   1.478       .  S
O781       Al783   1.893       .  S
O782       Al783   1.903       .  S
O782        C784   1.265       .  A
Al783       O791   1.931       .  S
Al783       O793   1.869       .  S
Al783       O792   1.784       .  S
C784        O797   1.266       .  A
C784       C1153   1.479       .  S
O785       Al787   1.892       .  S
O785        C795   1.255       .  A
O786       Al796   1.926       .  S
O786        C799   1.270       .  A
Al787       O800   1.927       .  S
Al787       O797   1.920       .  S
Al787       O792   1.780       .  S
O788       Al796   1.907       .  S
O788        C795   1.255       .  A
O789       Al796   1.901       .  S
O789        C798   1.259       .  A
O790       Al796   1.932       .  S
O791        C798   1.267       .  A
O792       Al796   1.786       .  S
O793        C794   1.251       .  A
C794       C2258   1.466       .  S
C795        C990   1.482       .  S
C798        C980   1.477       .  S
C799        O800   1.270       .  A
C799        C973   1.493       .  S
O801       Al809   1.913       .  S
O801        C816   1.259       .  A
C802        O812   1.267       .  A
C802        O803   1.255       .  A
C802        C940   1.469       .  S
O803       Al805   1.880       .  S
O804       Al805   1.930       .  S
O804        C806   1.270       .  A
Al805       O813   1.945       .  S
Al805       O815   1.874       .  S
Al805       O814   1.785       .  S
C806        O819   1.266       .  A
C806       C1093   1.488       .  S
O807       Al809   1.913       .  S
O807        C817   1.260       .  A
O808       Al818   1.912       .  S
O808        C821   1.268       .  A
Al809       O822   1.905       .  S
Al809       O819   1.913       .  S
Al809       O814   1.779       .  S
O810       Al818   1.883       .  S
O810        C817   1.251       .  A
O811       Al818   1.897       .  S
O811        C820   1.261       .  A
O812       Al818   1.923       .  S
O813        C820   1.272       .  A
O814       Al818   1.787       .  S
O815        C816   1.251       .  A
C816       C2181   1.473       .  S
C817        C960   1.482       .  S
C820        C950   1.486       .  S
C821        O822   1.266       .  A
C821        C923   1.474       .  S
O823       Al831   1.911       .  S
O823        C838   1.260       .  A
C824        O834   1.268       .  A
C824        O825   1.257       .  A
C824        C943   1.464       .  S
O825       Al827   1.881       .  S
O826       Al827   1.920       .  S
O826        C828   1.268       .  A
Al827       O835   1.942       .  S
Al827       O837   1.878       .  S
Al827       O836   1.783       .  S
C828        O841   1.267       .  A
C828        C910   1.490       .  S
O829       Al831   1.899       .  S
O829        C839   1.259       .  A
O830       Al840   1.914       .  S
O830        C843   1.267       .  A
Al831       O844   1.916       .  S
Al831       O841   1.922       .  S
Al831       O836   1.776       .  S
O832       Al840   1.907       .  S
O832        C839   1.255       .  A
O833       Al840   1.898       .  S
O833        C842   1.261       .  A
O834       Al840   1.922       .  S
O835        C842   1.270       .  A
O836       Al840   1.785       .  S
O837        C838   1.252       .  A
C839       C1133   1.484       .  S
C842       C1143   1.485       .  S
C843        O844   1.267       .  A
C843       C1083   1.476       .  S
O845       Al853   1.950       .  S
C846        O856   1.269       .  A
C846        O847   1.252       .  A
C846        C900   1.474       .  S
O847       Al849   1.840       .  S
O848       Al849   1.957       .  S
O848        C850   1.276       .  A
Al849       O857   1.936   1_565  S
Al849       O859   1.877   1_565  S
Al849       O858   1.776       .  S
C850        O863   1.266       .  A
C850        C920   1.479       .  S
O851       Al853   1.943       .  S
O851        C861   1.263       .  A
O852       Al862   1.958       .  S
O852        C865   1.276       .  A
Al853       O866   1.878       .  S
Al853       O863   1.892       .  S
Al853       O858   1.784       .  S
O854       Al862   1.870       .  S
O854        C861   1.249       .  A
O855       Al862   1.854       .  S
O855        C864   1.251   1_565  A
O856       Al862   1.939       .  S
O857        C864   1.263       .  A
O858       Al862   1.779       .  S
C860        C890   1.476       .  S
C861        C983   1.483       .  S
C864        C993   1.475       .  S
C865        O866   1.264       .  A
C865       C1000   1.474   1_565  S
O867       Al875   1.910       .  S
O867        C882   1.260       .  A
C868        O878   1.268       .  A
C868        O869   1.259       .  A
C868        C903   1.471       .  S
O869       Al871   1.892       .  S
O870       Al871   1.929       .  S
O870        C872   1.268       .  A
Al871       O879   1.941       .  S
Al871       O881   1.873       .  S
Al871       O880   1.787       .  S
C872        O885   1.265       .  A
C872        C970   1.487       .  S
O873       Al875   1.910       .  S
O873        C883   1.258       .  A
O874       Al884   1.910       .  S
O874        C887   1.266       .  A
Al875       O888   1.934       .  S
Al875       O885   1.913       .  S
Al875       O880   1.789       .  S
O876       Al884   1.899       .  S
O876        C883   1.253       .  A
O877       Al884   1.881       .  S
O877        C886   1.255       .  A
O878       Al884   1.909       .  S
O879        C886   1.267       .  A
O880       Al884   1.788       .  S
O881        C882   1.253       .  A
C882        C893   1.470       .  S
C883        C953   1.487       .  S
C886        C963   1.482       .  S
C887        O888   1.270       .  A
C887        C913   1.483       .  S
C889        C890   1.404       .  A
C889        C894   1.394       .  A
C889        H895   1.083       .  S
C890        C891   1.406       .  A
C891        C892   1.402       .  A
C891        H896   1.083       .  S
C892        C893   1.404       .  A
C892        H897   1.083       .  S
C893        C894   1.402       .  A
C894        H898   1.084       .  S
C899        C900   1.411       .  A
C899        C904   1.391       .  A
C899        H905   1.083       .  S
C900        C901   1.399       .  A
C901        C902   1.396       .  A
C901        H906   1.083       .  S
C902        C903   1.411       .  A
C902        H907   1.084       .  S
C903        C904   1.397       .  A
C904        H908   1.083       .  S
C909        C910   1.408       .  A
C909        C914   1.401       .  A
C909        H915   1.083       .  S
C910        C911   1.407       .  A
C911        C912   1.406       .  A
C911        H916   1.084       .  S
C912        C913   1.407       .  A
C912        H917   1.083       .  S
C913        C914   1.403       .  A
C914        H918   1.084       .  S
C919       C2168   1.408       .  A
C919        C924   1.402       .  A
C919        H925   1.083       .  S
C920       C2167   1.408       .  A
C920        C921   1.403       .  A
C921       C2170   1.397       .  A
C921        H926   1.084       .  S
C922       C2169   1.397       .  A
C922        C923   1.406       .  A
C922        H927   1.083       .  S
C923        C924   1.402       .  A
C924        H928   1.083       .  S
C929        C930   1.409       .  A
C929        C934   1.397       .  A
C929        H935   1.084       .  S
C931        H936   1.083       .  S
C932        C933   1.409       .  A
C932       H2185   1.083       .  S
C933       C2064   1.473   1_455  S
C933        C934   1.400       .  A
C934        H938   1.083       .  S
H937       C2180   1.083       .  S
C939        C940   1.396       .  A
C939        C944   1.393       .  A
C939        H945   1.083       .  S
C940        C941   1.412       .  A
C941        C942   1.394       .  A
C941        H946   1.083       .  S
C942        C943   1.395       .  A
C942        H947   1.083       .  S
C943        C944   1.410       .  A
C944        H948   1.084       .  S
C949       C2198   1.403       .  A
C949        C954   1.407       .  A
C949        H955   1.084       .  S
C950       C2197   1.403       .  A
C950        C951   1.411       .  A
C951        C952   1.395       .  A
C951        H956   1.083       .  S
C952       C2201   1.400       .  A
C952        H957   1.084       .  S
C953       C2200   1.400       .  A
C953        C954   1.413       .  A
C954        H958   1.083       .  S
C959        C960   1.413       .  A
C959        C964   1.403       .  A
C959        H965   1.083       .  S
C960        C961   1.398       .  A
C961        C962   1.394       .  A
C961        H966   1.083       .  S
C962        C963   1.411       .  A
C962        H967   1.083       .  S
C963        C964   1.401       .  A
C964        H968   1.083       .  S
C969        C970   1.406       .  A
C969       C2222   1.409       .  A
C969        H975   1.083       .  S
C970       C2219   1.405       .  A
C971       C2218   1.405       .  A
C971        C972   1.401       .  A
C971        H976   1.084       .  S
C972        C973   1.407       .  A
C972        H977   1.083       .  S
C973        C974   1.410       .  A
C974       C2217   1.409       .  A
C974        H978   1.083       .  S
C979       C2228   1.400   1_455  A
C979        C984   1.401       .  A
C979        H985   1.083       .  S
C980       C2227   1.400       .  A
C980        C981   1.408       .  A
C981        C982   1.398       .  A
C981        H986   1.083       .  S
C982       C2231   1.401       .  A
C982        H987   1.083       .  S
C983       C2230   1.401       .  A
C983        C984   1.412       .  A
C984        H988   1.083       .  S
C989        C994   1.392       .  A
C989        H995   1.084       .  S
C990        C991   1.411       .  A
C991        C992   1.405       .  A
C991        H996   1.083       .  S
C992        H997   1.083       .  S
C993        C994   1.405       .  A
C994        H998   1.084   1_545  S
C999       C1000   1.404       .  A
C999       H1005   1.084       .  S
C1001      C1002   1.404       .  A
C1001      H1006   1.083       .  S
C1002      C1003   1.410       .  A
C1002      H1007   1.083       .  S
C1003      C1004   1.402       .  A
C1004      H1008   1.083       .  S
C1009      C1010   1.397       .  A
C1009      C1014   1.396       .  A
C1009      H1015   1.083       .  S
C1010      C2042   1.466   1_455  S
C1010      C2259   1.407       .  A
C1011      C2258   1.407       .  A
C1011      C2260   1.395       .  A
C1011      H1016   1.084       .  S
C1012      C2259   1.395       .  A
C1012      C1013   1.399       .  A
C1012      H1017   1.083       .  S
C1013      C1014   1.410       .  A
C1014      H1018   1.083       .  S
C1019      C1020   1.413       .  A
C1019      C1024   1.398       .  A
C1019      H1025   1.083       .  S
C1020      C1021   1.398       .  A
C1021      C1022   1.399       .  A
C1021      H1026   1.083       .  S
C1022      C1023   1.413       .  A
C1022      H1027   1.083       .  S
C1023      C1024   1.397       .  A
C1024      H1028   1.083       .  S
C1029      C1030   1.397       .  A
C1029      C1034   1.396       .  A
C1029      H1035   1.083       .  S
C1030      C1031   1.407       .  A
C1031      C1032   1.394       .  A
C1032      C1033   1.398       .  A
C1032      H1037   1.083       .  S
C1033      C1034   1.410       .  A
C1034      H1038   1.083       .  S
C1039      C1040   1.396       .  A
C1039      C1044   1.396       .  A
C1039      H1045   1.083       .  S
C1040      C1041   1.411       .  A
C1041      C1042   1.396       .  A
C1041      H1046   1.084       .  S
C1042      C1043   1.396       .  A
C1042      H1047   1.083       .  S
C1043      C1044   1.414       .  A
C1044      H1048   1.083       .  S
C1049      C2298   1.404       .  A
C1049      C1054   1.398       .  A
C1049      H1055   1.084       .  S
C1050      C2297   1.404       .  A
C1050      C1051   1.409       .  A
C1051      C2300   1.408       .  A
C1051      H1056   1.083       .  S
C1052      C2299   1.408       .  A
C1052      C1053   1.407       .  A
C1052      H1057   1.084       .  S
C1053      C1054   1.406       .  A
C1054      H1058   1.083       .  S
C1059      C2308   1.409       .  A
C1059      C2312   1.392       .  A
C1059      H1065   1.083   1_655  S
C1060      C1958   1.477       .  S
C1060      C2307   1.409       .  A
C1060      C1061   1.401       .  A
C1061      C1062   1.402       .  A
C1061      H1066   1.084       .  S
C1062      C1063   1.411       .  A
C1062      H1067   1.083       .  S
C1063      C1064   1.399       .  A
C1064      C2307   1.392       .  A
C1064      H1068   1.084       .  S
C1069      C1074   1.407       .  A
C1069      H1075   1.083       .  S
C1070      C1071   1.411       .  A
C1071      C1072   1.393       .  A
C1071      H1076   1.083       .  S
C1072      H1077   1.083       .  S
C1073      C1074   1.413       .  A
C1074      H1078   1.083       .  S
C1079      C1084   1.404       .  A
C1079      H1085   1.083       .  S
C1080      C1081   1.405       .  A
C1081      H1086   1.083       .  S
C1082      C1083   1.402       .  A
C1082      H1087   1.083       .  S
C1083      C1084   1.405       .  A
C1084      H1088   1.083       .  S
C1089      C1090   1.409       .  A
C1089      C1094   1.409       .  A
C1089      H1095   1.082       .  S
C1090      C1091   1.404       .  A
C1091      C1092   1.397       .  A
C1091      H1096   1.084       .  S
C1092      C1093   1.406       .  A
C1092      H1097   1.083       .  S
C1093      C1094   1.407       .  A
C1094      H1098   1.084       .  S
C1099      C1100   1.408       .  A
C1099      H1105   1.084       .  S
C1101      C1102   1.400       .  A
C1101      H1106   1.083       .  S
C1102      C1103   1.404       .  A
C1102      H1107   1.084       .  S
C1103      C1104   1.407       .  A
C1104      H1108   1.083       .  S
C1109      C1110   1.400       .  A
C1109      C1114   1.398       .  A
C1109      H1115   1.083       .  S
C1110      C1111   1.409       .  A
C1111      C1112   1.397       .  A
C1111      H1116   1.083       .  S
C1112      C1113   1.399       .  A
C1112      H1117   1.083       .  S
C1113      C1114   1.409       .  A
C1114      H1118   1.084       .  S
C1119      C1120   1.396       .  A
C1119      C1124   1.396       .  A
C1119      H1125   1.083       .  S
C1120      C1121   1.413       .  A
C1121      C1122   1.395       .  A
C1121      H1126   1.083       .  S
C1122      C1123   1.395       .  A
C1122      H1127   1.083       .  S
C1123      C1124   1.412       .  A
C1124      H1128   1.083       .  S
C1129      C1130   1.403       .  A
C1129      C1134   1.407       .  A
C1129      H1135   1.083       .  S
C1130      C1131   1.410       .  A
C1131      C1132   1.391       .  A
C1131      H1136   1.083       .  S
C1132      C1133   1.399       .  A
C1132      H1137   1.083       .  S
C1133      C1134   1.412       .  A
C1134      H1138   1.083       .  S
C1139      C1140   1.412       .  A
C1139      C1144   1.406       .  A
C1139      H1145   1.083       .  S
C1141      C1142   1.394       .  A
C1141      H1146   1.083       .  S
C1142      C1143   1.410       .  A
C1142      H1147   1.083       .  S
C1144      H1148   1.083       .  S
C1149      C1150   1.406       .  A
C1149      H1155   1.084       .  S
C1151      C1152   1.406       .  A
C1152      C1153   1.409       .  A
C1152      H1157   1.083       .  S
C1153      C1154   1.401       .  A
C1154      H1158   1.083       .  S
C1159      C1160   1.406       .  A
C1159      C1164   1.392       .  A
C1159      H1165   1.084   1_545  S
C1161      C1162   1.405       .  A
C1161      H1166   1.083       .  S
C1162      C1163   1.411       .  A
C1162      H1167   1.083       .  S
C1164      H1168   1.083       .  S
C1169      C1170   1.402       .  A
C1169      C1174   1.403       .  A
C1169      H1175   1.083       .  S
C1170      C1171   1.408       .  A
C1171      C1172   1.398       .  A
C1171      H1176   1.083       .  S
C1172      C1173   1.402       .  A
C1172      H1177   1.083       .  S
C1173      C1174   1.411       .  A
C1174      H1178   1.083       .  S
C1179      C1180   1.409       .  A
C1179      C1184   1.408       .  A
C1179      H1185   1.083       .  S
C1180      C1181   1.401       .  A
C1181      C1182   1.399       .  A
C1181      H1186   1.083       .  S
C1182      C1183   1.408       .  A
C1182      H1187   1.083       .  S
C1183      C1184   1.405       .  A
C1184      H1188   1.083       .  S
C1189      C2438   1.405       .  A
C1189      C1194   1.404       .  A
C1189      H1195   1.084       .  S
C1190      C2437   1.405       .  A
C1190      C1191   1.407       .  A
C1191      C2440   1.407       .  A
C1191      H1196   1.083       .  S
C1192      C2439   1.407       .  A
C1192      C1193   1.408       .  A
C1192      H1197   1.083       .  S
C1193      C1194   1.408       .  A
C1194      H1198   1.083       .  S
C1199      C1200   1.405       .  A
C1199      C1204   1.398       .  A
C1199      H1205   1.083       .  S
C1200      C1201   1.407       .  A
C1201      C1202   1.407       .  A
C1201      H1206   1.083       .  S
C1202      C1203   1.407       .  A
C1202      H1207   1.083       .  S
C1203      C1204   1.405       .  A
C1204      H1208   1.083       .  S
C1209      C1210   1.402       .  A
C1209      C1214   1.400       .  A
C1209      H2463   1.083       .  S
C1210      C1211   1.404       .  A
C1211      C1212   1.395       .  A
C1211      H1216   1.083       .  S
C1212      C1213   1.403       .  A
C1212      H1217   1.084       .  S
C1213      C1214   1.405       .  A
C1214      H1218   1.083       .  S
H1215      C2457   1.083       .  S
C1219      C1220   1.413       .  A
C1219      C1224   1.395       .  A
C1219      H1225   1.083       .  S
C1220      C1221   1.396       .  A
C1221      C1222   1.392       .  A
C1221      H1226   1.083       .  S
C1222      C1223   1.412       .  A
C1222      H1227   1.083       .  S
C1223      C1224   1.397       .  A
C1224      H1228   1.083       .  S
C1229      C1230   1.400       .  A
C1229      C1234   1.402       .  A
C1229      H1235   1.084       .  S
C1230      C1892   1.479       .  S
C1230      C1231   1.409       .  A
C1231      C1232   1.396       .  A
C1231      H1236   1.083       .  S
C1232      C1233   1.401       .  A
C1232      H1237   1.084       .  S
C1233      C1234   1.412       .  A
C1234      H1238   1.083       .  S
C1239      C1240   1.400       .  A
C1239      C1244   1.393       .  A
C1239      H1245   1.083   1_554  S
C1240      C1241   1.413       .  A
C1241      C1242   1.410       .  A
C1241      H1246   1.083       .  S
C1242      C1243   1.405       .  A
C1242      H1247   1.083       .  S
C1243      C1244   1.411       .  A
C1244      H1248   1.083       .  S
O1249     Al1257   1.908       .  S
C1250      O1260   1.268       .  A
C1250      O1251   1.257       .  A
C1250      C1844   1.472       .  S
O1251     Al1253   1.881       .  S
O1252     Al1253   1.921       .  S
O1252      C1254   1.266       .  A
Al1253     O1261   1.927       .  S
Al1253     O1262   1.788       .  S
C1254      O1267   1.264       .  A
C1254      C1824   1.485       .  S
O1255     Al1257   1.902       .  S
O1255      C1265   1.259   1_556  A
O1256     Al1266   1.922   1_554  S
O1256      C1269   1.268       .  A
Al1257     O1270   1.930   1_556  S
Al1257     O1267   1.912       .  S
Al1257     O1262   1.788       .  S
O1258     Al1266   1.913   1_554  S
O1258      C1265   1.256       .  A
O1259     Al1266   1.894       .  S
O1259      C1268   1.258       .  A
O1260     Al1266   1.919       .  S
O1261      C1268   1.266       .  A
O1262     Al1266   1.789       .  S
O1263      C1264   1.253       .  A
C1264      C1834   1.468       .  S
C1265      C1864   1.490       .  S
C1269      O1270   1.268       .  A
C1269      C1814   1.489       .  S
O1271     Al1279   1.943       .  S
O1271      C1910   1.264       .  A
C1272      O1282   1.271       .  A
C1272      O1273   1.252       .  A
C1272      C1847   1.472       .  S
O1273     Al1275   1.836       .  S
O1274     Al1275   1.962       .  S
O1274      C1276   1.276       .  A
Al1275     O1283   1.938       .  S
Al1275     O1285   1.881       .  S
Al1275     O1284   1.779       .  S
C1276      O1289   1.266       .  A
C1276      C1804   1.484       .  S
O1277     Al1279   1.933       .  S
O1277      C1287   1.261       .  A
O1278     Al1288   1.963       .  S
O1278      C1291   1.277       .  A
Al1279     O1292   1.880       .  S
Al1279     O1289   1.901       .  S
Al1279     O1284   1.782       .  S
O1280     Al1288   1.879       .  S
O1280      C1287   1.250       .  A
O1281     Al1288   1.855       .  S
O1281      C1290   1.250       .  A
O1282     Al1288   1.941       .  S
O1283      C1290   1.262       .  A
O1284     Al1288   1.779       .  S
O1285      C1910   1.254       .  A
C1286      O1895   1.264   1_545  A
C1286      O1909   1.254       .  A
C1286      C1837   1.472       .  S
C1287      C1797   1.485       .  S
C1290      C1784   1.476       .  S
C1291      O1292   1.265       .  A
C1291      C1774   1.479       .  S
O1293     Al1301   1.913       .  S
O1293      C1308   1.260       .  A
C1294      O1304   1.269       .  A
C1294      O1295   1.257       .  A
C1294      C1744   1.473       .  S
O1295     Al1297   1.883       .  S
O1296     Al1297   1.919       .  S
O1296      C1298   1.267       .  A
Al1297     O1305   1.941       .  S
Al1297     O1307   1.882       .  S
Al1297     O1306   1.786       .  S
C1298      O1311   1.267       .  A
C1298      C1724   1.489       .  S
O1299     Al1301   1.905       .  S
O1299      C1309   1.259       .  A
O1300     Al1310   1.926       .  S
O1300      C1313   1.269       .  A
Al1301     O1314   1.918       .  S
Al1301     O1311   1.922       .  S
Al1301     O1306   1.778       .  S
O1302     Al1310   1.903       .  S
O1302      C1309   1.255       .  A
O1303     Al1310   1.892       .  S
O1303      C1312   1.260       .  A
O1304     Al1310   1.931       .  S
O1305      C1312   1.271       .  A
O1306     Al1310   1.783       .  S
O1307      C1308   1.253       .  A
C1308      C1734   1.475       .  S
C1309      C1764   1.486       .  S
C1312      C1754   1.485       .  S
C1313      O1314   1.268       .  A
C1313      C1714   1.487       .  S
O1315     Al1323   1.916       .  S
C1316      O1326   1.269       .  A
C1316      O1317   1.257       .  A
C1316      C1747   1.471       .  S
O1317     Al1319   1.885       .  S
O1318     Al1319   1.909       .  S
O1318      C1320   1.265       .  A
Al1319     O1327   1.932       .  S
Al1319     O1328   1.784       .  S
C1320      O1333   1.267       .  A
C1320      C1704   1.483       .  S
O1321     Al1323   1.907       .  S
O1321      C1331   1.259       .  A
O1322     Al1332   1.922       .  S
O1322      C1335   1.269       .  A
Al1323     O1336   1.921       .  S
Al1323     O1333   1.917       .  S
Al1323     O1328   1.776       .  S
O1324     Al1332   1.903       .  S
O1324      C1331   1.255       .  A
O1325     Al1332   1.893       .  S
O1325      C1334   1.260       .  A
O1326     Al1332   1.928       .  S
O1327      C1334   1.269       .  A
O1328     Al1332   1.783       .  S
O1329      C1330   1.253       .  A
C1330      C1737   1.474       .  S
C1331      C1697   1.486       .  S
C1335      O1336   1.269       .  A
C1335      C1674   1.487       .  S
O1337     Al1345   1.907       .  S
O1337      C1352   1.258       .  A
C1338      O1348   1.270       .  A
C1338      O1339   1.258       .  A
C1338      C1664   1.471       .  S
O1339     Al1341   1.885       .  S
O1340     Al1341   1.923       .  S
O1340      C1342   1.268       .  A
Al1341     O1349   1.948       .  S
Al1341     O1351   1.875       .  S
Al1341     O1350   1.781       .  S
C1342      O1355   1.269       .  A
C1342      C1817   1.494       .  S
O1343     Al1345   1.899       .  S
O1343      C1353   1.258       .  A
O1344     Al1354   1.921       .  S
O1344      C1357   1.268       .  A
Al1345     O1358   1.927       .  S
Al1345     O1355   1.931       .  S
Al1345     O1350   1.778       .  S
O1346     Al1354   1.896       .  S
O1346      C1353   1.254       .  A
O1347     Al1354   1.890       .  S
O1347      C1356   1.259       .  A
O1348     Al1354   1.929       .  S
O1349      C1356   1.271       .  A
O1350     Al1354   1.782       .  S
O1351      C1352   1.252       .  A
C1352      C2278   1.465   1_545  S
C1353      C1687   1.478       .  S
C1356      C1694   1.487   1_545  S
C1357      O1358   1.269       .  A
C1357      C1727   1.485       .  S
O1359     Al1367   1.903       .  S
O1359      C1374   1.256       .  A
C1360      O1370   1.269       .  A
C1360      O1361   1.254       .  A
C1360      C1667   1.475       .  S
O1361     Al1363   1.879       .  S
O1362     Al1363   1.929       .  S
O1362      C1364   1.270       .  A
Al1363     O1371   1.948       .  S
Al1363     O1373   1.869       .  S
Al1363     O1372   1.791       .  S
C1364      O1377   1.268       .  A
C1364      C1677   1.486       .  S
O1365     Al1367   1.911       .  S
O1365      C1375   1.259       .  A
O1366     Al1376   1.930   1_556  S
O1366      C1379   1.271       .  A
Al1367     O1380   1.905   1_554  S
Al1367     O1377   1.915       .  S
Al1367     O1372   1.782       .  S
O1368     Al1376   1.883   1_556  S
O1368      C1375   1.251   1_556  A
O1369     Al1376   1.894       .  S
O1369      C1378   1.261       .  A
O1370     Al1376   1.937       .  S
O1371      C1378   1.272       .  A
O1372     Al1376   1.787       .  S
O1373      C1374   1.249       .  A
C1374      C1657   1.469       .  S
C1375      C1857   1.483   1_554  S
C1378      C1867   1.492       .  S
C1379      O1380   1.266       .  A
C1379      C1807   1.488       .  S
O1381     Al1389   1.909       .  S
O1381      C1396   1.259       .  A
C1382      O1392   1.270       .  A
C1382      O1383   1.259       .  A
C1382      C1644   1.480       .  S
O1383     Al1385   1.892       .  S
O1384     Al1385   1.907       .  S
O1384      C1386   1.267       .  A
Al1385     O1393   1.931       .  S
Al1385     O1395   1.869       .  S
Al1385     O1394   1.785       .  S
C1386      O1399   1.266       .  A
C1386      C1627   1.480       .  S
O1387     Al1389   1.891       .  S
O1387      C1397   1.256       .  A
O1388     Al1398   1.924       .  S
O1388      C1401   1.270       .  A
Al1389     O1402   1.916       .  S
Al1389     O1399   1.913       .  S
Al1389     O1394   1.781       .  S
O1390     Al1398   1.904       .  S
O1390      C1397   1.254       .  A
O1391     Al1398   1.908       .  S
O1391      C1400   1.260       .  A
O1392     Al1398   1.935       .  S
O1393      C1400   1.267       .  A
O1394     Al1398   1.788       .  S
O1395      C1396   1.250       .  A
C1396      C1637   1.471       .  S
C1397      C1787   1.481       .  S
C1400      C1794   1.480       .  S
C1401      O1402   1.268       .  A
C1401      C1827   1.485       .  S
O1403     Al1411   1.910       .  S
O1403      C1418   1.258       .  A
C1404      O1414   1.271       .  A
C1404      O1405   1.259       .  A
C1404      C1647   1.478       .  S
O1405     Al1407   1.893       .  S
O1406     Al1407   1.903       .  S
O1406      C1408   1.265       .  A
Al1407     O1415   1.931       .  S
Al1407     O1417   1.869       .  S
Al1407     O1416   1.784       .  S
C1408      O1421   1.266       .  A
C1408      C1777   1.479       .  S
O1409     Al1411   1.892       .  S
O1409      C1419   1.255       .  A
O1410     Al1420   1.926       .  S
O1410      C1423   1.270       .  A
Al1411     O1424   1.927       .  S
Al1411     O1421   1.920       .  S
Al1411     O1416   1.780       .  S
O1412     Al1420   1.907       .  S
O1412      C1419   1.255       .  A
O1413     Al1420   1.901       .  S
O1413      C1422   1.259       .  A
O1414     Al1420   1.932       .  S
O1415      C1422   1.267       .  A
O1416     Al1420   1.786       .  S
O1417      C1418   1.251       .  A
C1419      C1614   1.482       .  S
C1422      C1604   1.477       .  S
C1423      O1424   1.270       .  A
C1423      C1597   1.493       .  S
O1425     Al1433   1.913       .  S
O1425      C1440   1.259       .  A
C1426      O1436   1.267       .  A
C1426      O1427   1.255       .  A
C1426      C1564   1.469       .  S
O1427     Al1429   1.880       .  S
O1428     Al1429   1.930       .  S
O1428      C1430   1.270       .  A
Al1429     O1437   1.945       .  S
Al1429     O1439   1.874       .  S
Al1429     O1438   1.785       .  S
C1430      O1443   1.266       .  A
C1430      C1717   1.488       .  S
O1431     Al1433   1.913       .  S
O1431      C1441   1.260       .  A
O1432     Al1442   1.912       .  S
O1432      C1445   1.268       .  A
Al1433     O1446   1.905       .  S
Al1433     O1443   1.913       .  S
Al1433     O1438   1.779       .  S
O1434     Al1442   1.883       .  S
O1434      C1441   1.251       .  A
O1435     Al1442   1.897       .  S
O1435      C1444   1.261       .  A
O1436     Al1442   1.923       .  S
O1437      C1444   1.272       .  A
O1438     Al1442   1.787       .  S
O1439      C1440   1.251       .  A
C1441      C1584   1.482       .  S
C1444      C1574   1.486   1_655  S
C1445      O1446   1.266       .  A
C1445      C1547   1.474       .  S
O1447     Al1455   1.911       .  S
O1447      C1462   1.260       .  A
C1448      O1458   1.268       .  A
C1448      O1449   1.257       .  A
C1448      C1567   1.464       .  S
O1449     Al1451   1.881       .  S
O1450     Al1451   1.920       .  S
O1450      C1452   1.268       .  A
Al1451     O1459   1.942       .  S
Al1451     O1461   1.878       .  S
Al1451     O1460   1.783       .  S
C1452      O1465   1.267       .  A
C1452      C1534   1.490       .  S
O1453     Al1455   1.899       .  S
O1453      C1463   1.259       .  A
O1454     Al1464   1.914       .  S
O1454      C1467   1.267       .  A
Al1455     O1468   1.916       .  S
Al1455     O1465   1.922       .  S
Al1455     O1460   1.776       .  S
O1456     Al1464   1.907       .  S
O1456      C1463   1.255       .  A
O1457     Al1464   1.898       .  S
O1457      C1466   1.261       .  A
O1458     Al1464   1.922       .  S
O1459      C1466   1.270       .  A
O1460     Al1464   1.785       .  S
O1461      C1462   1.252       .  A
C1462      C2178   1.470   1_545  S
C1463      C1757   1.484       .  S
C1466      C1767   1.485   1_545  S
C1467      O1468   1.267       .  A
C1467      C1707   1.476       .  S
O1469     Al1477   1.950       .  S
O1469      C2108   1.265       .  A
C1470      O1480   1.269       .  A
C1470      O1471   1.252       .  A
C1470      C1524   1.474       .  S
O1471     Al1473   1.840       .  S
O1472     Al1473   1.956       .  S
O1472      C1474   1.276       .  A
Al1473     O1481   1.936       .  S
Al1473     O1483   1.877       .  S
Al1473     O1482   1.776       .  S
C1474      O1487   1.266       .  A
C1474      C1544   1.479       .  S
O1475     Al1477   1.943       .  S
O1475      C1485   1.263       .  A
O1476     Al1486   1.958       .  S
O1476      C1489   1.276       .  A
Al1477     O1490   1.878       .  S
Al1477     O1487   1.892       .  S
Al1477     O1482   1.784       .  S
O1478     Al1486   1.870       .  S
O1478      C1485   1.249       .  A
O1479     Al1486   1.854       .  S
O1479      C1488   1.251       .  A
O1480     Al1486   1.939       .  S
O1481      C1488   1.263       .  A
O1482     Al1486   1.779       .  S
O1483      C2108   1.254       .  A
C1484      O2093   1.265   1_545  A
C1484      O2107   1.254       .  A
C1484      C1514   1.476       .  S
C1485      C1607   1.483       .  S
C1488      C1617   1.475       .  S
C1489      O1490   1.264       .  A
C1489      C1624   1.474       .  S
O1491     Al1499   1.910       .  S
O1491      C1506   1.260       .  A
C1492      O1502   1.268       .  A
C1492      O1493   1.259       .  A
C1492      C1527   1.471       .  S
O1493     Al1495   1.892       .  S
O1494     Al1495   1.929       .  S
O1494      C1496   1.268       .  A
Al1495     O1503   1.941       .  S
Al1495     O1505   1.873       .  S
Al1495     O1504   1.787       .  S
C1496      O1509   1.265       .  A
C1496      C1594   1.487       .  S
O1497     Al1499   1.910       .  S
O1497      C1507   1.258       .  A
O1498     Al1508   1.910       .  S
O1498      C1511   1.266       .  A
Al1499     O1512   1.934       .  S
Al1499     O1509   1.913       .  S
Al1499     O1504   1.789       .  S
O1500     Al1508   1.899       .  S
O1500      C1507   1.253       .  A
O1501     Al1508   1.881       .  S
O1501      C1510   1.255       .  A
O1502     Al1508   1.909       .  S
O1503      C1510   1.267       .  A
O1504     Al1508   1.788       .  S
O1505      C1506   1.253       .  A
C1506      C1517   1.470       .  S
C1507      C1577   1.487       .  S
C1510      C1587   1.482       .  S
C1511      O1512   1.270       .  A
C1511      C1537   1.484       .  S
C1513      C1514   1.404       .  A
C1513      C1518   1.394       .  A
C1513      H1519   1.083       .  S
C1514      C1515   1.406       .  A
C1515      C1516   1.402       .  A
C1515      H1520   1.083       .  S
C1516      C1517   1.404       .  A
C1516      H1521   1.083       .  S
C1517      C1518   1.402       .  A
C1518      H1522   1.084       .  S
C1523      C1524   1.411       .  A
C1523      C1528   1.391       .  A
C1523      H1529   1.083       .  S
C1524      C1525   1.399       .  A
C1525      C1526   1.396       .  A
C1525      H1530   1.083       .  S
C1526      C1527   1.411       .  A
C1526      H1531   1.084       .  S
C1527      C1528   1.397       .  A
C1528      H1532   1.083       .  S
C1533      C1534   1.408       .  A
C1533      C1538   1.401       .  A
C1533      H1539   1.083       .  S
C1534      C1535   1.407       .  A
C1535      C1536   1.406       .  A
C1535      H1540   1.084       .  S
C1536      C1537   1.407       .  A
C1536      H1541   1.083       .  S
C1537      C1538   1.403       .  A
C1538      H1542   1.084       .  S
C1543      C1548   1.402   1_455  A
C1543      H1549   1.083       .  S
C1544      C1545   1.403       .  A
C1545      H1550   1.084       .  S
C1546      C1547   1.406   1_455  A
C1546      H1551   1.083       .  S
C1547      C1548   1.402       .  A
C1548      H1552   1.083       .  S
C1553      C1554   1.409       .  A
C1553      C1558   1.397       .  A
C1553      H1559   1.084       .  S
C1554      C2086   1.470       .  S
C1554      C2179   1.398       .  A
C1555      C2178   1.398       .  A
C1555      C2180   1.396       .  A
C1555      H1560   1.083       .  S
C1556      C2179   1.396       .  A
C1556      C1557   1.409       .  A
C1557      C1558   1.400       .  A
C1558      H1562   1.083       .  S
C1563      C1564   1.396       .  A
C1563      C1568   1.393       .  A
C1563      H1569   1.083       .  S
C1564      C1565   1.412       .  A
C1565      C1566   1.394       .  A
C1565      H1570   1.083       .  S
C1566      C1567   1.395       .  A
C1566      H1571   1.083       .  S
C1567      C1568   1.410       .  A
C1568      H1572   1.084       .  S
C1573      C1578   1.407       .  A
C1573      H1579   1.084       .  S
C1574      C1575   1.411   1_455  A
C1575      C1576   1.395   1_655  A
C1575      H1580   1.083       .  S
C1576      H1581   1.084       .  S
C1577      C1578   1.413       .  A
C1578      H1582   1.083       .  S
C1583      C1584   1.413       .  A
C1583      C1588   1.403       .  A
C1583      H1589   1.083       .  S
C1584      C1585   1.398       .  A
C1585      C1586   1.394       .  A
C1585      H1590   1.083       .  S
C1586      C1587   1.411       .  A
C1586      H1591   1.083       .  S
C1587      C1588   1.401       .  A
C1588      H1592   1.083       .  S
C1593      C1594   1.406       .  A
C1593      H1599   1.083       .  S
C1595      C1596   1.401   1_455  A
C1595      H1600   1.084       .  S
C1596      C1597   1.407       .  A
C1596      H1601   1.083       .  S
C1597      C1598   1.410   1_655  A
C1598      H1602   1.083       .  S
C1603      C1608   1.401       .  A
C1603      H1609   1.083       .  S
C1604      C1605   1.408       .  A
C1605      C1606   1.398   1_655  A
C1605      H1610   1.083       .  S
C1606      H1611   1.083   1_455  S
C1607      C1608   1.412       .  A
C1608      H1612   1.083       .  S
C1613      C2238   1.402       .  A
C1613      C1618   1.392       .  A
C1613      H1619   1.084       .  S
C1614      C2237   1.402       .  A
C1614      C1615   1.411       .  A
C1615      C1616   1.405       .  A
C1615      H1620   1.083       .  S
C1616      C2241   1.402       .  A
C1616      H1621   1.083       .  S
C1617      C2240   1.402       .  A
C1617      C1618   1.405       .  A
C1618      H1622   1.084       .  S
C1623      C1624   1.404       .  A
C1623      C2252   1.396       .  A
C1623      H1629   1.084       .  S
C1624      C2249   1.402       .  A
C1625      C2248   1.402       .  A
C1625      C1626   1.404       .  A
C1625      H1630   1.083   1_545  S
C1626      C1627   1.410       .  A
C1626      H1631   1.083       .  S
C1627      C1628   1.402       .  A
C1628      C2247   1.396       .  A
C1628      H1632   1.083       .  S
C1633      C1634   1.397       .  A
C1633      C1638   1.396       .  A
C1633      H1639   1.083       .  S
C1635      H1640   1.084   1_455  S
C1636      C1637   1.399       .  A
C1636      H1641   1.083       .  S
C1637      C1638   1.410       .  A
C1638      H1642   1.083       .  S
C1643      C1644   1.413       .  A
C1643      C1648   1.398       .  A
C1643      H1649   1.083       .  S
C1644      C1645   1.398       .  A
C1645      C1646   1.399       .  A
C1645      H1650   1.083       .  S
C1646      C1647   1.413       .  A
C1646      H1651   1.083       .  S
C1647      C1648   1.397       .  A
C1648      H1652   1.083       .  S
C1653      C1654   1.397       .  A
C1653      C1658   1.396       .  A
C1653      H1659   1.083       .  S
C1654      C1976   1.465       .  S
C1654      C1655   1.407       .  A
C1655      C1656   1.394       .  A
C1655      H2284   1.083       .  S
C1656      C1657   1.398       .  A
C1656      H1661   1.083       .  S
C1657      C1658   1.410       .  A
C1658      H1662   1.083       .  S
H1660      C2279   1.083       .  S
C1663      C1664   1.396       .  A
C1663      C1668   1.396       .  A
C1663      H1669   1.083       .  S
C1664      C1665   1.411       .  A
C1665      C1666   1.396       .  A
C1665      H1670   1.084       .  S
C1666      C1667   1.396       .  A
C1666      H1671   1.083       .  S
C1667      C1668   1.414       .  A
C1668      H1672   1.083       .  S
C1673      C1678   1.398       .  A
C1673      H1679   1.084       .  S
C1674      C1675   1.409       .  A
C1675      H1680   1.083       .  S
C1676      C1677   1.407       .  A
C1676      H1681   1.084       .  S
C1677      C1678   1.406       .  A
C1678      H1682   1.083       .  S
C1683      H1689   1.083       .  S
C1684      C1685   1.401       .  A
C1685      C1686   1.402       .  A
C1685      H1690   1.084       .  S
C1686      C1687   1.411       .  A
C1686      H1691   1.083       .  S
C1687      C1688   1.399       .  A
C1688      H1692   1.084       .  S
C1693      C2318   1.403       .  A
C1693      C1698   1.407       .  A
C1693      H1699   1.083       .  S
C1694      C2317   1.403       .  A
C1694      C1695   1.411   1_565  A
C1695      C1696   1.393   1_545  A
C1695      H1700   1.083       .  S
C1696      C2321   1.399       .  A
C1696      H1701   1.083       .  S
C1697      C2320   1.399       .  A
C1697      C1698   1.413       .  A
C1698      H1702   1.083       .  S
C1703      C2328   1.408       .  A
C1703      C1708   1.404       .  A
C1703      H1709   1.083       .  S
C1704      C2327   1.408       .  A
C1704      C1705   1.405       .  A
C1705      C2330   1.396       .  A
C1705      H1710   1.083       .  S
C1706      C2329   1.396   1_545  A
C1706      C1707   1.402       .  A
C1706      H1711   1.083       .  S
C1707      C1708   1.405   1_545  A
C1708      H1712   1.083       .  S
C1713      C1714   1.409       .  A
C1713      C1718   1.409       .  A
C1713      H1719   1.082       .  S
C1714      C1715   1.404       .  A
C1715      C1716   1.397       .  A
C1715      H1720   1.084       .  S
C1716      C1717   1.406       .  A
C1716      H1721   1.083       .  S
C1717      C1718   1.407       .  A
C1718      H1722   1.084       .  S
C1723      C1724   1.408       .  A
C1723      C2352   1.407       .  A
C1723      H1729   1.084       .  S
C1724      C2349   1.407       .  A
C1725      C2348   1.407       .  A
C1725      C1726   1.400   1_565  A
C1725      H1730   1.083       .  S
C1726      C1727   1.404       .  A
C1726      H1731   1.084       .  S
C1727      C1728   1.407   1_545  A
C1728      C2347   1.407       .  A
C1728      H1732   1.083       .  S
C1733      C1734   1.400       .  A
C1733      C1738   1.398       .  A
C1733      H1739   1.083       .  S
C1734      C1735   1.409       .  A
C1735      C1736   1.397       .  A
C1735      H1740   1.083       .  S
C1736      C1737   1.399       .  A
C1736      H1741   1.083       .  S
C1737      C1738   1.409       .  A
C1738      H1742   1.084       .  S
C1743      C1744   1.396       .  A
C1743      C1748   1.396       .  A
C1743      H1749   1.083       .  S
C1744      C1745   1.413       .  A
C1745      C1746   1.395       .  A
C1745      H1750   1.083       .  S
C1746      C1747   1.395       .  A
C1746      H1751   1.083       .  S
C1747      C1748   1.412       .  A
C1748      H1752   1.083       .  S
C1753      C1754   1.403       .  A
C1753      C1758   1.407       .  A
C1753      H1759   1.083       .  S
C1754      C1755   1.410       .  A
C1755      C1756   1.391       .  A
C1755      H1760   1.083       .  S
C1756      C1757   1.399       .  A
C1756      H1761   1.083       .  S
C1757      C1758   1.412       .  A
C1758      H1762   1.083       .  S
C1763      C1764   1.412       .  A
C1763      C1768   1.406       .  A
C1763      H1769   1.083       .  S
C1764      C2389   1.401       .  A
C1765      C2388   1.401       .  A
C1765      C1766   1.394   1_565  A
C1765      H1770   1.083       .  S
C1766      C1767   1.410   1_545  A
C1766      H1771   1.083       .  S
C1767      C2392   1.403       .  A
C1768      C2391   1.403       .  A
C1768      H1772   1.083       .  S
C1773      C1774   1.406       .  A
C1773      C2402   1.397       .  A
C1773      H1779   1.084       .  S
C1774      C2399   1.404       .  A
C1775      C2398   1.404       .  A
C1775      C1776   1.406       .  A
C1775      H2404   1.083   1_545  S
C1776      C1777   1.409       .  A
C1776      H1781   1.083       .  S
C1777      C1778   1.401       .  A
C1778      C2397   1.397       .  A
C1778      H1782   1.083       .  S
H1780      C2399   1.083       .  S
C1783      C1784   1.406       .  A
C1783      C1788   1.392       .  A
C1783      H1789   1.084       .  S
C1784      C2409   1.402       .  A
C1785      C2408   1.402       .  A
C1785      C1786   1.405       .  A
C1785      H1790   1.083       .  S
C1786      C1787   1.411       .  A
C1786      H1791   1.083       .  S
C1787      C2412   1.401       .  A
C1788      C2411   1.401       .  A
C1788      H1792   1.083       .  S
C1793      C1794   1.402       .  A
C1793      C1798   1.403       .  A
C1793      H1799   1.083       .  S
C1794      C1795   1.408       .  A
C1795      C1796   1.398       .  A
C1795      H1800   1.083       .  S
C1796      C1797   1.402       .  A
C1796      H1801   1.083       .  S
C1797      C1798   1.411       .  A
C1798      H1802   1.083       .  S
C1803      C1804   1.409       .  A
C1803      C1808   1.408       .  A
C1803      H1809   1.083       .  S
C1804      C1805   1.401       .  A
C1805      C1806   1.399       .  A
C1805      H1810   1.083       .  S
C1806      C1807   1.408       .  A
C1806      H1811   1.083       .  S
C1807      C1808   1.405       .  A
C1808      H1812   1.083       .  S
C1813      C1818   1.404       .  A
C1813      H1819   1.084   1_655  S
C1814      C1815   1.407       .  A
C1815      H1820   1.083       .  S
C1816      C1817   1.408       .  A
C1816      H1821   1.083       .  S
C1817      C1818   1.408       .  A
C1818      H1822   1.083       .  S
C1823      C1824   1.405       .  A
C1823      C1828   1.398       .  A
C1823      H1829   1.083       .  S
C1824      C1825   1.407       .  A
C1825      C1826   1.407       .  A
C1825      H1830   1.083       .  S
C1826      C1827   1.407       .  A
C1826      H1831   1.083       .  S
C1827      C1828   1.405       .  A
C1828      H1832   1.083       .  S
C1833      C1834   1.402       .  A
C1833      C1838   1.400       .  A
C1834      C1835   1.404       .  A
C1835      C1836   1.395       .  A
C1835      H1840   1.083       .  S
C1836      C1837   1.403       .  A
C1836      H1841   1.084       .  S
C1837      C1838   1.405       .  A
C1838      H1842   1.083       .  S
C1843      C1844   1.413       .  A
C1843      C1848   1.395       .  A
C1843      H1849   1.083       .  S
C1844      C1845   1.396       .  A
C1845      C1846   1.392       .  A
C1845      H1850   1.083       .  S
C1846      C1847   1.412       .  A
C1846      H1851   1.083       .  S
C1847      C1848   1.397       .  A
C1848      H1852   1.083       .  S
C1853      C1854   1.400       .  A
C1853      C1858   1.402       .  A
C1853      H1859   1.084       .  S
C1854      C1855   1.409       .  A
C1855      C1856   1.396       .  A
C1855      H1860   1.083   1_655  S
C1856      C1857   1.401       .  A
C1856      H1861   1.084       .  S
C1857      C1858   1.412       .  A
C1858      H1862   1.083       .  S
C1863      C1864   1.400       .  A
C1863      C1868   1.393       .  A
C1863      H1869   1.083   1_554  S
C1864      C1865   1.413       .  A
C1865      C1866   1.410       .  A
C1865      H1870   1.083       .  S
C1866      C1867   1.405       .  A
C1866      H1871   1.083       .  S
C1867      C1868   1.411       .  A
C1868      H1872   1.083       .  S
O1873     Al1881   1.908       .  S
C1874      O1884   1.268       .  A
C1874      O1875   1.257       .  A
C1874      C2468   1.472       .  S
O1875     Al1877   1.881       .  S
O1876     Al1877   1.921       .  S
O1876      C1878   1.266       .  A
Al1877     O1885   1.927       .  S
Al1877     O1886   1.788       .  S
C1878      O1891   1.264       .  A
C1878      C2448   1.485       .  S
O1879     Al1881   1.902       .  S
O1879      C1889   1.259   1_556  A
O1880     Al1890   1.922   1_554  S
O1880      C1893   1.268       .  A
Al1881     O1894   1.930   1_556  S
Al1881     O1891   1.912       .  S
Al1881     O1886   1.788       .  S
O1882     Al1890   1.913   1_554  S
O1882      C1889   1.256       .  A
O1883     Al1890   1.894       .  S
O1883      C1892   1.258       .  A
O1884     Al1890   1.919       .  S
O1885      C1892   1.266       .  A
O1886     Al1890   1.789       .  S
O1887      C1888   1.253       .  A
C1888      C2458   1.468       .  S
C1889      C2488   1.490       .  S
C1893      O1894   1.268       .  A
C1893      C2438   1.489       .  S
O1895     Al1903   1.943       .  S
C1896      O1906   1.271       .  A
C1896      O1897   1.252       .  A
C1896      C2471   1.472       .  S
O1897     Al1899   1.836       .  S
O1898     Al1899   1.962       .  S
O1898      C1900   1.276       .  A
Al1899     O1907   1.938   1_565  S
Al1899     O1909   1.881   1_565  S
Al1899     O1908   1.779       .  S
C1900      O1913   1.266       .  A
C1900      C2428   1.484       .  S
O1901     Al1903   1.933       .  S
O1901      C1911   1.261       .  A
O1902     Al1912   1.963       .  S
O1902      C1915   1.277       .  A
Al1903     O1916   1.880       .  S
Al1903     O1913   1.901       .  S
Al1903     O1908   1.782       .  S
O1904     Al1912   1.879       .  S
O1904      C1911   1.250       .  A
O1905     Al1912   1.855       .  S
O1905      C1914   1.250   1_565  A
O1906     Al1912   1.941       .  S
O1907      C1914   1.262       .  A
O1908     Al1912   1.779       .  S
C1910      C2461   1.472       .  S
C1911      C2421   1.485       .  S
C1914      C2408   1.476       .  S
C1915      O1916   1.265       .  A
C1915      C2398   1.479   1_565  S
O1917     Al1925   1.913       .  S
O1917      C1932   1.260       .  A
C1918      O1928   1.269       .  A
C1918      O1919   1.257       .  A
C1918      C2368   1.473       .  S
O1919     Al1921   1.883       .  S
O1920     Al1921   1.919       .  S
O1920      C1922   1.267       .  A
Al1921     O1929   1.941       .  S
Al1921     O1931   1.882       .  S
Al1921     O1930   1.786       .  S
C1922      O1935   1.267       .  A
C1922      C2348   1.489       .  S
O1923     Al1925   1.905       .  S
O1923      C1933   1.259       .  A
O1924     Al1934   1.926       .  S
O1924      C1937   1.269       .  A
Al1925     O1938   1.918       .  S
Al1925     O1935   1.922       .  S
Al1925     O1930   1.778       .  S
O1926     Al1934   1.903       .  S
O1926      C1933   1.255       .  A
O1927     Al1934   1.892       .  S
O1927      C1936   1.260       .  A
O1928     Al1934   1.931       .  S
O1929      C1936   1.271       .  A
O1930     Al1934   1.783       .  S
O1931      C1932   1.253       .  A
C1932      C2358   1.475       .  S
C1933      C2388   1.486       .  S
C1936      C2378   1.485       .  S
C1937      O1938   1.268       .  A
C1937      C2338   1.487       .  S
O1939     Al1947   1.916       .  S
C1940      O1950   1.269       .  A
C1940      O1941   1.257       .  A
C1940      C2371   1.471       .  S
O1941     Al1943   1.885       .  S
O1942     Al1943   1.909       .  S
O1942      C1944   1.265       .  A
Al1943     O1951   1.932       .  S
Al1943     O1952   1.784       .  S
C1944      O1957   1.267       .  A
C1944      C2328   1.483       .  S
O1945     Al1947   1.907       .  S
O1945      C1955   1.259       .  A
O1946     Al1956   1.922       .  S
O1946      C1959   1.269       .  A
Al1947     O1960   1.921       .  S
Al1947     O1957   1.917       .  S
Al1947     O1952   1.776       .  S
O1948     Al1956   1.903       .  S
O1948      C1955   1.255       .  A
O1949     Al1956   1.893       .  S
O1949      C1958   1.260       .  A
O1950     Al1956   1.928       .  S
O1951      C1958   1.269       .  A
O1952     Al1956   1.783       .  S
O1953      C1954   1.253       .  A
C1954      C2361   1.474       .  S
C1955      C2321   1.486       .  S
C1959      O1960   1.269       .  A
C1959      C2298   1.487       .  S
O1961     Al1969   1.907       .  S
O1961      C1976   1.258       .  A
C1962      O1972   1.270       .  A
C1962      O1963   1.258       .  A
C1962      C2288   1.471       .  S
O1963     Al1965   1.885       .  S
O1964     Al1965   1.923       .  S
O1964      C1966   1.268       .  A
Al1965     O1973   1.948       .  S
Al1965     O1975   1.875       .  S
Al1965     O1974   1.781       .  S
C1966      O1979   1.269       .  A
C1966      C2441   1.494       .  S
O1967     Al1969   1.899       .  S
O1967      C1977   1.258       .  A
O1968     Al1978   1.921       .  S
O1968      C1981   1.268       .  A
Al1969     O1982   1.927       .  S
Al1969     O1979   1.931       .  S
Al1969     O1974   1.778       .  S
O1970     Al1978   1.896       .  S
O1970      C1977   1.254       .  A
O1971     Al1978   1.890       .  S
O1971      C1980   1.259       .  A
O1972     Al1978   1.929       .  S
O1973      C1980   1.271       .  A
O1974     Al1978   1.782       .  S
O1975      C1976   1.252       .  A
C1977      C2311   1.478       .  S
C1980      C2318   1.487       .  S
C1981      O1982   1.269       .  A
C1981      C2351   1.485       .  S
O1983     Al1991   1.903       .  S
O1983      C1998   1.256       .  A
C1984      O1994   1.269       .  A
C1984      O1985   1.254       .  A
C1984      C2291   1.475       .  S
O1985     Al1987   1.879       .  S
O1986     Al1987   1.929       .  S
O1986      C1988   1.270       .  A
Al1987     O1995   1.948       .  S
Al1987     O1997   1.869       .  S
Al1987     O1996   1.791       .  S
C1988      O2001   1.268       .  A
C1988      C2301   1.486       .  S
O1989     Al1991   1.911       .  S
O1989      C1999   1.259       .  A
O1990     Al2000   1.930   1_556  S
O1990      C2003   1.271       .  A
Al1991     O2004   1.905   1_554  S
Al1991     O2001   1.915       .  S
Al1991     O1996   1.782       .  S
O1992     Al2000   1.883   1_556  S
O1992      C1999   1.251   1_556  A
O1993     Al2000   1.894       .  S
O1993      C2002   1.261       .  A
O1994     Al2000   1.937       .  S
O1995      C2002   1.272       .  A
O1996     Al2000   1.787       .  S
O1997      C1998   1.249       .  A
C1998      C2281   1.469       .  S
C1999      C2481   1.483   1_554  S
C2002      C2491   1.492       .  S
C2003      O2004   1.266       .  A
C2003      C2431   1.488       .  S
O2005     Al2013   1.909       .  S
O2005      C2020   1.259       .  A
C2006      O2016   1.270       .  A
C2006      O2007   1.259       .  A
C2006      C2268   1.480       .  S
O2007     Al2009   1.892       .  S
O2008     Al2009   1.907       .  S
O2008      C2010   1.267       .  A
Al2009     O2017   1.931       .  S
Al2009     O2019   1.869       .  S
Al2009     O2018   1.785       .  S
C2010      O2023   1.266       .  A
C2010      C2251   1.480       .  S
O2011     Al2013   1.891       .  S
O2011      C2021   1.256       .  A
O2012     Al2022   1.924       .  S
O2012      C2025   1.270       .  A
Al2013     O2026   1.916       .  S
Al2013     O2023   1.913       .  S
Al2013     O2018   1.781       .  S
O2014     Al2022   1.904       .  S
O2014      C2021   1.254       .  A
O2015     Al2022   1.908       .  S
O2015      C2024   1.260       .  A
O2016     Al2022   1.935       .  S
O2017      C2024   1.267       .  A
O2018     Al2022   1.788       .  S
O2019      C2020   1.250       .  A
C2020      C2261   1.471       .  S
C2021      C2411   1.481       .  S
C2024      C2418   1.480       .  S
C2025      O2026   1.268       .  A
C2025      C2451   1.485       .  S
O2027     Al2035   1.910       .  S
O2027      C2042   1.258       .  A
C2028      O2038   1.271       .  A
C2028      O2029   1.259       .  A
C2028      C2271   1.478       .  S
O2029     Al2031   1.893       .  S
O2030     Al2031   1.903       .  S
O2030      C2032   1.265       .  A
Al2031     O2039   1.931       .  S
Al2031     O2041   1.869       .  S
Al2031     O2040   1.784       .  S
C2032      O2045   1.266       .  A
C2032      C2401   1.479       .  S
O2033     Al2035   1.892       .  S
O2033      C2043   1.255       .  A
O2034     Al2044   1.926       .  S
O2034      C2047   1.270       .  A
Al2035     O2048   1.927       .  S
Al2035     O2045   1.920       .  S
Al2035     O2040   1.780       .  S
O2036     Al2044   1.907       .  S
O2036      C2043   1.255       .  A
O2037     Al2044   1.901       .  S
O2037      C2046   1.259       .  A
O2038     Al2044   1.932       .  S
O2039      C2046   1.267       .  A
O2040     Al2044   1.786       .  S
O2041      C2042   1.251       .  A
C2043      C2238   1.482       .  S
C2046      C2228   1.477       .  S
C2047      O2048   1.270       .  A
C2047      C2221   1.493       .  S
O2049     Al2057   1.913       .  S
O2049      C2064   1.259       .  A
C2050      O2060   1.267       .  A
C2050      O2051   1.255       .  A
C2050      C2188   1.469       .  S
O2051     Al2053   1.880       .  S
O2052     Al2053   1.930       .  S
O2052      C2054   1.270       .  A
Al2053     O2061   1.945       .  S
Al2053     O2063   1.874       .  S
Al2053     O2062   1.785       .  S
C2054      O2067   1.266       .  A
C2054      C2341   1.488       .  S
O2055     Al2057   1.913       .  S
O2055      C2065   1.260       .  A
O2056     Al2066   1.912       .  S
O2056      C2069   1.268       .  A
Al2057     O2070   1.905       .  S
Al2057     O2067   1.913       .  S
Al2057     O2062   1.779       .  S
O2058     Al2066   1.883       .  S
O2058      C2065   1.251       .  A
O2059     Al2066   1.897       .  S
O2059      C2068   1.261       .  A
O2060     Al2066   1.923       .  S
O2061      C2068   1.272       .  A
O2062     Al2066   1.787       .  S
O2063      C2064   1.251       .  A
C2065      C2208   1.482       .  S
C2068      C2198   1.486   1_655  S
C2069      O2070   1.266       .  A
C2069      C2171   1.474       .  S
O2071     Al2079   1.911       .  S
O2071      C2086   1.260       .  A
C2072      O2082   1.268       .  A
C2072      O2073   1.257       .  A
C2072      C2191   1.464       .  S
O2073     Al2075   1.881       .  S
O2074     Al2075   1.920       .  S
O2074      C2076   1.268       .  A
Al2075     O2083   1.942       .  S
Al2075     O2085   1.878       .  S
Al2075     O2084   1.783       .  S
C2076      O2089   1.267       .  A
C2076      C2158   1.490       .  S
O2077     Al2079   1.899       .  S
O2077      C2087   1.259       .  A
O2078     Al2088   1.914       .  S
O2078      C2091   1.267       .  A
Al2079     O2092   1.916       .  S
Al2079     O2089   1.922       .  S
Al2079     O2084   1.776       .  S
O2080     Al2088   1.907       .  S
O2080      C2087   1.255       .  A
O2081     Al2088   1.898       .  S
O2081      C2090   1.261       .  A
O2082     Al2088   1.922       .  S
O2083      C2090   1.270       .  A
O2084     Al2088   1.785       .  S
O2085      C2086   1.252       .  A
C2087      C2381   1.484       .  S
C2090      C2391   1.485       .  S
C2091      O2092   1.267       .  A
C2091      C2331   1.476       .  S
O2093     Al2101   1.950       .  S
C2094      O2104   1.269       .  A
C2094      O2095   1.252       .  A
C2094      C2148   1.474       .  S
O2095     Al2097   1.840       .  S
O2096     Al2097   1.956       .  S
O2096      C2098   1.276       .  A
Al2097     O2105   1.936   1_565  S
Al2097     O2107   1.877   1_565  S
Al2097     O2106   1.776       .  S
C2098      O2111   1.266       .  A
C2098      C2168   1.479       .  S
O2099     Al2101   1.943       .  S
O2099      C2109   1.263       .  A
O2100     Al2110   1.958       .  S
O2100      C2113   1.276       .  A
Al2101     O2114   1.878       .  S
Al2101     O2111   1.892       .  S
Al2101     O2106   1.784       .  S
O2102     Al2110   1.870       .  S
O2102      C2109   1.249       .  A
O2103     Al2110   1.854       .  S
O2103      C2112   1.251   1_565  A
O2104     Al2110   1.939       .  S
O2105      C2112   1.263       .  A
O2106     Al2110   1.779       .  S
C2108      C2138   1.476       .  S
C2109      C2231   1.483       .  S
C2112      C2241   1.475       .  S
C2113      O2114   1.264       .  A
C2113      C2248   1.474   1_565  S
O2115     Al2123   1.910       .  S
O2115      C2130   1.260       .  A
C2116      O2126   1.268       .  A
C2116      O2117   1.259       .  A
C2116      C2151   1.471       .  S
O2117     Al2119   1.892       .  S
O2118     Al2119   1.929       .  S
O2118      C2120   1.268       .  A
Al2119     O2127   1.941       .  S
Al2119     O2129   1.873       .  S
Al2119     O2128   1.787       .  S
C2120      O2133   1.265       .  A
C2120      C2218   1.487       .  S
O2121     Al2123   1.910       .  S
O2121      C2131   1.258       .  A
O2122     Al2132   1.910       .  S
O2122      C2135   1.266       .  A
Al2123     O2136   1.934       .  S
Al2123     O2133   1.913       .  S
Al2123     O2128   1.789       .  S
O2124     Al2132   1.899       .  S
O2124      C2131   1.253       .  A
O2125     Al2132   1.881       .  S
O2125      C2134   1.255       .  A
O2126     Al2132   1.909       .  S
O2127      C2134   1.267       .  A
O2128     Al2132   1.788       .  S
O2129      C2130   1.253       .  A
C2130      C2141   1.470       .  S
C2131      C2201   1.487       .  S
C2134      C2211   1.482       .  S
C2135      O2136   1.270       .  A
C2135      C2161   1.484       .  S
C2137      C2138   1.404       .  A
C2137      C2142   1.394       .  A
C2137      H2143   1.083       .  S
C2138      C2139   1.406       .  A
C2139      C2140   1.402       .  A
C2139      H2144   1.083       .  S
C2140      C2141   1.404       .  A
C2140      H2145   1.083       .  S
C2141      C2142   1.402       .  A
C2142      H2146   1.084       .  S
C2147      C2148   1.411       .  A
C2147      C2152   1.391       .  A
C2147      H2153   1.083       .  S
C2148      C2149   1.399       .  A
C2149      C2150   1.396       .  A
C2149      H2154   1.083       .  S
C2150      C2151   1.411       .  A
C2150      H2155   1.084       .  S
C2151      C2152   1.397       .  A
C2152      H2156   1.083       .  S
C2157      C2158   1.408       .  A
C2157      C2162   1.401       .  A
C2157      H2163   1.083       .  S
C2158      C2159   1.407       .  A
C2159      C2160   1.406       .  A
C2159      H2164   1.084       .  S
C2160      C2161   1.407       .  A
C2160      H2165   1.083       .  S
C2161      C2162   1.403       .  A
C2162      H2166   1.084       .  S
C2167      C2172   1.402   1_455  A
C2167      H2173   1.083       .  S
C2168      C2169   1.403       .  A
C2169      H2174   1.084       .  S
C2170      C2171   1.406   1_455  A
C2170      H2175   1.083       .  S
C2171      C2172   1.402       .  A
C2172      H2176   1.083       .  S
C2177      C2178   1.409       .  A
C2177      C2182   1.397       .  A
C2177      H2183   1.084       .  S
C2179      H2184   1.083       .  S
C2180      C2181   1.409       .  A
C2181      C2182   1.400       .  A
C2182      H2186   1.083       .  S
C2187      C2188   1.396       .  A
C2187      C2192   1.393       .  A
C2187      H2193   1.083       .  S
C2188      C2189   1.412       .  A
C2189      C2190   1.394       .  A
C2189      H2194   1.083       .  S
C2190      C2191   1.395       .  A
C2190      H2195   1.083       .  S
C2191      C2192   1.410       .  A
C2192      H2196   1.084       .  S
C2197      C2202   1.407       .  A
C2197      H2203   1.084       .  S
C2198      C2199   1.411   1_455  A
C2199      C2200   1.395   1_655  A
C2199      H2204   1.083       .  S
C2200      H2205   1.084       .  S
C2201      C2202   1.413       .  A
C2202      H2206   1.083       .  S
C2207      C2208   1.413       .  A
C2207      C2212   1.403       .  A
C2207      H2213   1.083       .  S
C2208      C2209   1.398       .  A
C2209      C2210   1.394       .  A
C2209      H2214   1.083       .  S
C2210      C2211   1.411       .  A
C2210      H2215   1.083       .  S
C2211      C2212   1.401       .  A
C2212      H2216   1.083       .  S
C2217      C2218   1.406       .  A
C2217      H2223   1.083       .  S
C2219      C2220   1.401   1_455  A
C2219      H2224   1.084       .  S
C2220      C2221   1.407       .  A
C2220      H2225   1.083       .  S
C2221      C2222   1.410   1_655  A
C2222      H2226   1.083       .  S
C2227      C2232   1.401       .  A
C2227      H2233   1.083       .  S
C2228      C2229   1.408       .  A
C2229      C2230   1.398   1_655  A
C2229      H2234   1.083       .  S
C2230      H2235   1.083   1_455  S
C2231      C2232   1.412       .  A
C2232      H2236   1.083       .  S
C2237      C2242   1.392       .  A
C2237      H2243   1.084       .  S
C2238      C2239   1.411       .  A
C2239      C2240   1.405       .  A
C2239      H2244   1.083       .  S
C2240      H2245   1.083       .  S
C2241      C2242   1.405       .  A
C2242      H2246   1.084   1_545  S
C2247      C2248   1.404       .  A
C2247      H2253   1.084       .  S
C2249      C2250   1.404       .  A
C2249      H2254   1.083       .  S
C2250      C2251   1.410       .  A
C2250      H2255   1.083       .  S
C2251      C2252   1.402       .  A
C2252      H2256   1.083       .  S
C2257      C2258   1.397       .  A
C2257      C2262   1.396       .  A
C2257      H2263   1.083       .  S
C2259      H2264   1.084   1_455  S
C2260      C2261   1.399       .  A
C2260      H2265   1.083       .  S
C2261      C2262   1.410       .  A
C2262      H2266   1.083       .  S
C2267      C2268   1.413       .  A
C2267      C2272   1.398       .  A
C2267      H2273   1.083       .  S
C2268      C2269   1.398       .  A
C2269      C2270   1.399       .  A
C2269      H2274   1.083       .  S
C2270      C2271   1.413       .  A
C2270      H2275   1.083       .  S
C2271      C2272   1.397       .  A
C2272      H2276   1.083       .  S
C2277      C2278   1.397       .  A
C2277      C2282   1.396       .  A
C2277      H2283   1.083       .  S
C2278      C2279   1.407       .  A
C2279      C2280   1.394       .  A
C2280      C2281   1.398       .  A
C2280      H2285   1.083       .  S
C2281      C2282   1.410       .  A
C2282      H2286   1.083       .  S
C2287      C2288   1.396       .  A
C2287      C2292   1.396       .  A
C2287      H2293   1.083       .  S
C2288      C2289   1.411       .  A
C2289      C2290   1.396       .  A
C2289      H2294   1.084       .  S
C2290      C2291   1.396       .  A
C2290      H2295   1.083       .  S
C2291      C2292   1.414       .  A
C2292      H2296   1.083       .  S
C2297      C2302   1.398       .  A
C2297      H2303   1.084       .  S
C2298      C2299   1.409       .  A
C2299      H2304   1.083       .  S
C2300      C2301   1.407       .  A
C2300      H2305   1.084       .  S
C2301      C2302   1.406       .  A
C2302      H2306   1.083       .  S
C2307      H2313   1.083       .  S
C2308      C2309   1.401       .  A
C2309      C2310   1.402       .  A
C2309      H2314   1.084       .  S
C2310      C2311   1.411       .  A
C2310      H2315   1.083       .  S
C2311      C2312   1.399       .  A
C2312      H2316   1.084       .  S
C2317      C2322   1.407       .  A
C2317      H2323   1.083       .  S
C2318      C2319   1.411       .  A
C2319      C2320   1.393       .  A
C2319      H2324   1.083       .  S
C2320      H2325   1.083       .  S
C2321      C2322   1.413       .  A
C2322      H2326   1.083       .  S
C2327      C2332   1.404       .  A
C2327      H2333   1.083       .  S
C2328      C2329   1.405       .  A
C2329      H2334   1.083       .  S
C2330      C2331   1.402       .  A
C2330      H2335   1.083       .  S
C2331      C2332   1.405       .  A
C2332      H2336   1.083       .  S
C2337      C2338   1.409       .  A
C2337      C2342   1.409       .  A
C2337      H2343   1.082       .  S
C2338      C2339   1.404       .  A
C2339      C2340   1.397       .  A
C2339      H2344   1.084       .  S
C2340      C2341   1.406       .  A
C2340      H2345   1.083       .  S
C2341      C2342   1.407       .  A
C2342      H2346   1.084       .  S
C2347      C2348   1.408       .  A
C2347      H2353   1.084       .  S
C2349      C2350   1.400       .  A
C2349      H2354   1.083       .  S
C2350      C2351   1.404       .  A
C2350      H2355   1.084       .  S
C2351      C2352   1.407       .  A
C2352      H2356   1.083       .  S
C2357      C2358   1.400       .  A
C2357      C2362   1.398       .  A
C2357      H2363   1.083       .  S
C2358      C2359   1.409       .  A
C2359      C2360   1.397       .  A
C2359      H2364   1.083       .  S
C2360      C2361   1.399       .  A
C2360      H2365   1.083       .  S
C2361      C2362   1.409       .  A
C2362      H2366   1.084       .  S
C2367      C2368   1.396       .  A
C2367      C2372   1.396       .  A
C2367      H2373   1.083       .  S
C2368      C2369   1.413       .  A
C2369      C2370   1.395       .  A
C2369      H2374   1.083       .  S
C2370      C2371   1.395       .  A
C2370      H2375   1.083       .  S
C2371      C2372   1.412       .  A
C2372      H2376   1.083       .  S
C2377      C2378   1.403       .  A
C2377      C2382   1.407       .  A
C2377      H2383   1.083       .  S
C2378      C2379   1.410       .  A
C2379      C2380   1.391       .  A
C2379      H2384   1.083       .  S
C2380      C2381   1.399       .  A
C2380      H2385   1.083       .  S
C2381      C2382   1.412       .  A
C2382      H2386   1.083       .  S
C2387      C2388   1.412       .  A
C2387      C2392   1.406       .  A
C2387      H2393   1.083       .  S
C2389      C2390   1.394       .  A
C2389      H2394   1.083       .  S
C2390      C2391   1.410       .  A
C2390      H2395   1.083       .  S
C2392      H2396   1.083       .  S
C2397      C2398   1.406       .  A
C2397      H2403   1.084       .  S
C2399      C2400   1.406       .  A
C2400      C2401   1.409       .  A
C2400      H2405   1.083       .  S
C2401      C2402   1.401       .  A
C2402      H2406   1.083       .  S
C2407      C2408   1.406       .  A
C2407      C2412   1.392       .  A
C2407      H2413   1.084   1_545  S
C2409      C2410   1.405       .  A
C2409      H2414   1.083       .  S
C2410      C2411   1.411       .  A
C2410      H2415   1.083       .  S
C2412      H2416   1.083       .  S
C2417      C2418   1.402       .  A
C2417      C2422   1.403       .  A
C2417      H2423   1.083       .  S
C2418      C2419   1.408       .  A
C2419      C2420   1.398       .  A
C2419      H2424   1.083       .  S
C2420      C2421   1.402       .  A
C2420      H2425   1.083       .  S
C2421      C2422   1.411       .  A
C2422      H2426   1.083       .  S
C2427      C2428   1.409       .  A
C2427      C2432   1.408       .  A
C2427      H2433   1.083       .  S
C2428      C2429   1.401       .  A
C2429      C2430   1.399       .  A
C2429      H2434   1.083       .  S
C2430      C2431   1.408       .  A
C2430      H2435   1.083       .  S
C2431      C2432   1.405       .  A
C2432      H2436   1.083       .  S
C2437      C2442   1.404       .  A
C2437      H2443   1.084   1_655  S
C2438      C2439   1.407       .  A
C2439      H2444   1.083       .  S
C2440      C2441   1.408       .  A
C2440      H2445   1.083       .  S
C2441      C2442   1.408       .  A
C2442      H2446   1.083       .  S
C2447      C2448   1.405       .  A
C2447      C2452   1.398       .  A
C2447      H2453   1.083       .  S
C2448      C2449   1.407       .  A
C2449      C2450   1.407       .  A
C2449      H2454   1.083       .  S
C2450      C2451   1.407       .  A
C2450      H2455   1.083       .  S
C2451      C2452   1.405       .  A
C2452      H2456   1.083       .  S
C2457      C2458   1.402       .  A
C2457      C2462   1.400       .  A
C2458      C2459   1.404       .  A
C2459      C2460   1.395       .  A
C2459      H2464   1.083       .  S
C2460      C2461   1.403       .  A
C2460      H2465   1.084       .  S
C2461      C2462   1.405       .  A
C2462      H2466   1.083       .  S
C2467      C2468   1.413       .  A
C2467      C2472   1.395       .  A
C2467      H2473   1.083       .  S
C2468      C2469   1.396       .  A
C2469      C2470   1.392       .  A
C2469      H2474   1.083       .  S
C2470      C2471   1.412       .  A
C2470      H2475   1.083       .  S
C2471      C2472   1.397       .  A
C2472      H2476   1.083       .  S
C2477      C2478   1.400       .  A
C2477      C2482   1.402       .  A
C2477      H2483   1.084       .  S
C2478      C2479   1.409       .  A
C2479      C2480   1.396       .  A
C2479      H2484   1.083   1_655  S
C2480      C2481   1.401       .  A
C2480      H2485   1.084       .  S
C2481      C2482   1.412       .  A
C2482      H2486   1.083       .  S
C2487      C2488   1.400       .  A
C2487      C2492   1.393       .  A
C2487      H2493   1.083   1_554  S
C2488      C2489   1.413       .  A
C2489      C2490   1.410       .  A
C2489      H2494   1.083       .  S
C2490      C2491   1.405       .  A
C2490      H2495   1.083       .  S
C2491      C2492   1.411       .  A
C2492      H2496   1.083       .  S
