geometry optimzed in LAMMPS
_audit_creation_date              2020-12-01 
_audit_creation_method            'lammps2cif' 
_symmetry_space_group_name_H-M    'P1' 
_symmetry_Int_Tables_number       1 
_symmetry_cell_setting            triclinic 
loop_ 
_symmetry_equiv_pos_as_xyz 
  x,y,z 
_cell_length_a                    28.56496452 
_cell_length_b                    28.513225451361794 
_cell_length_c                    36.16959266979592 
_cell_angle_alpha                 90.28483817928313 
_cell_angle_beta                  90.06173189598675 
_cell_angle_gamma                 90.22871839451784 
loop_ 
_atom_site_label 
_atom_site_type_symbol 
_atom_site_fract_x 
_atom_site_fract_y 
_atom_site_fract_z 
_atom_site_charge 
O1          O  0.50045830  0.30305009  0.16976688    -0.81400
C2          C  0.60067075  0.13359104  0.16341297     0.97900
O3          O  0.55895907  0.13773576  0.15157921    -0.70600
O4          O  0.50478935  0.17310119  0.20221577    -0.74200
Al5        Al  0.51682310  0.19167900  0.15282549     1.49000
C6          C  0.49251924  0.19927503  0.22849163     0.93200
O7          O  0.59502394  0.25569790  0.23166954    -0.80400
O8          O  0.61644695  0.29417637  0.12742208    -0.73900
Al9        Al  0.54815253  0.27713897  0.19916045     1.90100
O10         O  0.64948722  0.24958947  0.18878114    -0.73000
O11         O  0.59834409  0.21003411  0.09712365    -0.72900
O12         O  0.62751327  0.16868743  0.16287255    -0.78500
O13         O  0.52214766  0.20446262  0.10147291    -0.76700
O14         O  0.56077412  0.23312536  0.16553809    -1.12900
O15         O  0.46583996  0.23723556  0.15317305    -0.72000
C16         C  0.46468800  0.28137264  0.15826663     0.98700
C17         C  0.63734640  0.25351623  0.22213856     0.95100
Al18       Al  0.61792177  0.23041801  0.14542789     1.55600
O19         O  0.50347618  0.24210303  0.22822514    -0.76700
C20         C  0.55859604  0.20670181  0.08209313     0.99200
C21         C  0.61172015  0.32870173  0.14931020     0.94100
O22         O  0.58937931  0.32315623  0.17909901    -0.82000
O23         O  0.87950789  0.20410969  0.34394317    -0.81400
C24         C  0.88461348  0.39977552  0.33040803     0.97900
O25         O  0.85791546  0.37963327  0.35324880    -0.70600
O26         O  0.81959480  0.31749847  0.31032419    -0.74200
Al27       Al  0.84767193  0.31248661  0.35621730     1.49000
C28         C  0.81428947  0.28335536  0.28873647     0.93200
O29         O  0.93488155  0.27876701  0.26669913    -0.80400
O30         O  0.98538886  0.27748485  0.36922224    -0.73900
Al31       Al  0.90662563  0.24521188  0.30772672     1.90100
O32         O  0.98233347  0.32022473  0.30128657    -0.73000
O33         O  0.93379259  0.34832635  0.39786679    -0.72900
O34         O  0.92513401  0.38364709  0.32489215    -0.78500
O35         O  0.86994684  0.30769118  0.40433512    -0.76700
O36         O  0.90237982  0.29551627  0.33710225    -1.12900
O37         O  0.82374738  0.25061385  0.36267173    -0.72000
C38         C  0.83997451  0.20986762  0.35910139     0.98700
C39         C  0.97115675  0.30411361  0.26983037     0.95100
Al40       Al  0.95265498  0.32988847  0.34767347     1.55600
O41         O  0.84631591  0.25312779  0.28517747    -0.76700
C42         C  0.90228749  0.33136054  0.41863845     0.99200
C43         C  0.99250308  0.23868541  0.35272606     0.94100
O44         O  0.96681343  0.22706589  0.32560338    -0.82000
O45         O  0.57041180  0.32106678  0.83701325    -0.81400
C46         C  0.58181457  0.12562294  0.84091663     0.97900
O47         O  0.60658657  0.15120061  0.86222812    -0.70600
O48         O  0.64293926  0.20787487  0.81506043    -0.74200
Al49       Al  0.61264314  0.21934369  0.85994041     1.49000
C50         C  0.64699063  0.23891818  0.79094370     0.93200
O51         O  0.53289493  0.22865611  0.76684149    -0.80400
O52         O  0.47361642  0.24709946  0.86604204    -0.73900
Al53       Al  0.55170481  0.27249236  0.80411458     1.90100
O54         O  0.47988077  0.19399031  0.80102482    -0.73000
O55         O  0.52624894  0.18443552  0.90133966    -0.72900
O56         O  0.54073320  0.13889562  0.83336837    -0.78500
O57         O  0.58807350  0.22963233  0.90770594    -0.76700
O58         O  0.55772947  0.22876799  0.83819582    -1.12900
O59         O  0.63178928  0.28548388  0.85991093    -0.72000
C60         C  0.61102992  0.32304863  0.85073594     0.98700
C61         C  0.49663537  0.20355987  0.76946943     0.95100
Al62       Al  0.50886512  0.19350519  0.84984863     1.55600
O63         O  0.61411399  0.26758547  0.78565410    -0.76700
C64         C  0.55493688  0.20666128  0.92171204     0.99200
C65         C  0.46513962  0.28240603  0.84595818     0.94100
O66         O  0.48822216  0.28812497  0.81642534    -0.82000
O67         O  0.96392247  0.22098790  0.66810376    -0.81400
C68         C  0.86373403  0.38831503  0.66873998     0.97900
O69         O  0.90492459  0.38663834  0.65522264    -0.70600
O70         O  0.96256235  0.34716609  0.70111115    -0.74200
Al71       Al  0.94727618  0.33255627  0.65156276     1.49000
C72         C  0.97187566  0.32021185  0.72749348     0.93200
O73         O  0.86221168  0.26460585  0.72592945    -0.80400
O74         O  0.85073173  0.23526801  0.61846420    -0.73900
Al75       Al  0.91312135  0.24517643  0.69507510     1.90100
O76         O  0.81266444  0.26880753  0.68025313    -0.73000
O77         O  0.86470938  0.32514321  0.59775706    -0.72900
O78         O  0.83647442  0.35371736  0.66578679    -0.78500
O79         O  0.94016619  0.32439666  0.59898640    -0.76700
O80         O  0.90302464  0.29093126  0.66277149    -1.12900
O81         O  0.99706452  0.28633323  0.64875995    -0.72000
C82         C  0.99904411  0.24272458  0.65566017     0.98700
C83         C  0.82061181  0.26740609  0.71418573     0.95100
Al84       Al  0.84648754  0.29571654  0.64202476     1.55600
O85         O  0.95553664  0.27904570  0.72766822    -0.76700
C86         C  0.90275029  0.32795697  0.58081005     0.99200
C87         C  0.85349647  0.19880106  0.63851214     0.94100
O88         O  0.87417642  0.20046795  0.66957350    -0.82000
O89         O  0.67099398  0.62281915  0.82727890    -0.81400
C90         C  0.86086868  0.64111096  0.83987657     0.97900
O91         O  0.82450950  0.66581435  0.84068075    -0.70600
O92         O  0.74209075  0.68600533  0.81762289    -0.74200
Al93       Al  0.76431550  0.65310379  0.85910701     1.49000
C94         C  0.73746990  0.67528266  0.78400848     0.93200
O95         O  0.75276696  0.54107088  0.77355779    -0.80400
O96         O  0.76118756  0.50113034  0.84732969    -0.73900
Al97       Al  0.71753157  0.58393006  0.80457986     1.90100
O98         O  0.82260195  0.54413652  0.79768375    -0.73000
O99         O  0.79450937  0.55690333  0.89933186    -0.72900
O100        O  0.85822822  0.59817194  0.84909997    -0.78500
O101        O  0.78769297  0.63287740  0.90567737    -0.76700
O102        O  0.76249528  0.59674837  0.83733612    -1.12900
O103        O  0.70224943  0.64761906  0.87903704    -0.72000
C104        C  0.66678268  0.64294948  0.85832334     0.98700
C105        C  0.79557501  0.53046524  0.77234043     0.95100
Al106      Al  0.80548831  0.55385711  0.84779281     1.55600
O107        O  0.73638549  0.63321606  0.77307687    -0.76700
C108        C  0.79268751  0.59282279  0.91949000     0.99200
C109        C  0.71697740  0.49872552  0.84334635     0.94100
O110        O  0.69405770  0.53407277  0.83308455    -0.82000
O111        O  0.75307692  0.00622565  0.67764424    -0.81400
C112        C  0.58905860  0.90928847  0.66885859     0.97900
O113        O  0.60045820  0.95147038  0.67440440    -0.70600
O114        O  0.65476720  0.01579138  0.70074473    -0.74200
Al115      Al  0.65137393  0.98564099  0.65367598     1.49000
C116        C  0.66756217  0.00175326  0.73199485     0.93200
O117        O  0.73101085  0.88352817  0.71597460    -0.80400
O118        O  0.74225091  0.86544200  0.63318076    -0.73900
Al119      Al  0.73713313  0.94456180  0.69440024     1.90100
O120        O  0.67633647  0.84859766  0.68352191    -0.73000
O121        O  0.67980357  0.90803677  0.59247701    -0.72900
O122        O  0.61076336  0.88559204  0.64470410    -0.78500
O123        O  0.63609609  0.96916596  0.60323791    -0.76700
O124        O  0.68969583  0.93744917  0.66264064    -1.12900
O125        O  0.70134196  0.02369842  0.63474878    -0.72000
C126        C  0.73986032  0.03202777  0.65120311     0.98700
C127        C  0.70581986  0.84792859  0.70910304     0.95100
Al128      Al  0.67829284  0.88226858  0.64016029     1.55600
O129        O  0.69805576  0.96966616  0.73397205    -0.76700
C130        C  0.65502327  0.94102403  0.58085426     0.99200
C131        C  0.78153568  0.88203277  0.64244442     0.94100
O132        O  0.78376748  0.92003716  0.66074570    -0.82000
O133        O  0.70127221  0.53757938  0.17299874    -0.81400
C134        C  0.86548073  0.64165829  0.15902814     0.97900
O135        O  0.86321327  0.59929827  0.14761822    -0.70600
O136        O  0.83101400  0.54732270  0.19974788    -0.74200
Al137      Al  0.81051674  0.55502315  0.15068332     1.49000
C138        C  0.80695801  0.53766331  0.22762209     0.93200
O139        O  0.74873827  0.64452086  0.22392463    -0.80400
O140        O  0.70757287  0.64504901  0.11810977    -0.73900
Al141      Al  0.72682239  0.59048374  0.19686307     1.90100
O142        O  0.74601492  0.68983756  0.17579893    -0.73000
O143        O  0.79467979  0.63106315  0.09195017    -0.72900
O144        O  0.82970553  0.66726841  0.15668205    -0.78500
O145        O  0.79687832  0.55535258  0.09929347    -0.76700
O146        O  0.76880896  0.59897468  0.16141089    -1.12900
O147        O  0.76523247  0.50319440  0.15355956    -0.72000
C148        C  0.72142300  0.50181561  0.16006207     0.98700
C149        C  0.74709608  0.68529590  0.21014340     0.95100
Al150      Al  0.76985620  0.65337283  0.13734284     1.55600
O151        O  0.76477417  0.55087339  0.22916525    -0.76700
C152        C  0.79717316  0.59049134  0.07857560     0.99200
C153        C  0.67300590  0.64304247  0.14020838     0.94100
O154        O  0.67825255  0.62636581  0.17249483    -0.82000
O155        O  0.78969232  0.93690478  0.34763910    -0.81400
C156        C  0.59505136  0.89852837  0.33872973     0.97900
O157        O  0.62294117  0.87918158  0.36109393    -0.70600
O158        O  0.69151371  0.85247280  0.31934969    -0.74200
Al159      Al  0.69049412  0.88495966  0.36375705     1.49000
C160        C  0.72311725  0.85501682  0.29540670     0.93200
O161        O  0.70470599  0.97214241  0.27014010    -0.80400
O162        O  0.69243708  0.02892498  0.36762005    -0.73900
Al163      Al  0.74323836  0.95354081  0.31179923     1.90100
O164        O  0.65082356  0.01005437  0.30055896    -0.73000
O165        O  0.63694691  0.96599815  0.39943649    -0.72900
O166        O  0.60237353  0.94063670  0.32938400    -0.78500
O167        O  0.68931083  0.91195609  0.41134887    -0.76700
O168        O  0.69476299  0.94063689  0.34138971    -1.12900
O169        O  0.75670704  0.87446888  0.36981678    -0.72000
C170        C  0.79352831  0.89728874  0.36276513     0.98700
C171        C  0.67050377  0.00021938  0.27035427     0.95100
Al172      Al  0.64944282  0.98275718  0.34874242     1.55600
O173        O  0.74643228  0.89223891  0.29068855    -0.76700
C174        C  0.65956733  0.94139276  0.42223650     0.99200
C175        C  0.73153331  0.04079665  0.35391261     0.94100
O176        O  0.75050639  0.01652822  0.32877165    -0.82000
O177        O  0.29608004  0.43903270  0.84340813    -0.81400
C178        C  0.10473574  0.40336559  0.83225097     0.97900
O179        O  0.12970599  0.38152655  0.85539086    -0.70600
O180        O  0.19703557  0.35533430  0.81214560    -0.74200
Al181      Al  0.19763278  0.38520133  0.85791952     1.49000
C182        C  0.22984667  0.35765892  0.78916567     0.93200
O183        O  0.20991713  0.47760016  0.76881680    -0.80400
O184        O  0.20335364  0.52714267  0.87026676    -0.73900
Al185      Al  0.24981972  0.45671820  0.80843140     1.90100
O186        O  0.15995932  0.51686661  0.80264486    -0.73000
O187        O  0.14660063  0.46333559  0.89925837    -0.72900
O188        O  0.11197455  0.44643959  0.82701534    -0.78500
O189        O  0.19925161  0.40877689  0.90658103    -0.76700
O190        O  0.20246545  0.44236134  0.83834299    -1.12900
O191        O  0.26357939  0.37449320  0.86268959    -0.72000
C192        C  0.29990513  0.39872915  0.85715302     0.98700
C193        C  0.17682740  0.50687949  0.77138747     0.95100
Al194      Al  0.15882378  0.48481840  0.84914187     1.55600
O195        O  0.25323508  0.39522271  0.78511367    -0.76700
C196        C  0.17181357  0.43847197  0.92023530     0.99200
C197        C  0.24064420  0.54081842  0.85471573     0.94100
O198        O  0.25727138  0.51917001  0.82708505    -0.82000
O199        O  0.21617279  0.02147569  0.68585125    -0.81400
C200        C  0.37403519  0.12554622  0.65932842     0.97900
O201        O  0.36503240  0.08360713  0.66853118    -0.70600
O202        O  0.31357648  0.01767338  0.70015591    -0.74200
Al203      Al  0.31161110  0.04721945  0.65258068     1.49000
C204        C  0.30473700  0.03281785  0.73224244     0.93200
O205        O  0.23545562  0.14793918  0.72024550    -0.80400
O206        O  0.21282325  0.16371862  0.64273791    -0.73900
Al207      Al  0.23100883  0.08525966  0.70018031     1.90100
O208        O  0.28839640  0.18160573  0.68545912    -0.73000
O209        O  0.26827135  0.12095819  0.59527148    -0.72900
O210        O  0.34617093  0.14667678  0.63781476    -0.78500
O211        O  0.31939058  0.06463859  0.60143233    -0.76700
O212        O  0.27331504  0.09370626  0.66496986    -1.12900
O213        O  0.25998189  0.00828692  0.63691816    -0.72000
C214        C  0.22428115  0.99846996  0.65639080     0.98700
C215        C  0.26085259  0.18292579  0.71231906     0.95100
Al216      Al  0.27847127  0.14836735  0.64190617     1.55600
O217        O  0.27657627  0.06646717  0.73622691    -0.76700
C218        C  0.29372837  0.08980295  0.58118407     0.99200
C219        C  0.17668379  0.14224021  0.65359957     0.94100
O220        O  0.18055010  0.10320845  0.66944127    -0.82000
O221        O  0.24747755  0.50530035  0.18375958    -0.81400
C222        C  0.09307375  0.39873581  0.16454131     0.97900
O223        O  0.10083317  0.44149810  0.17169070    -0.70600
O224        O  0.15037084  0.50912542  0.20067964    -0.74200
Al225      Al  0.15179979  0.47860923  0.15307366     1.49000
C226        C  0.16193887  0.49541318  0.23250622     0.93200
O227        O  0.23237492  0.37946685  0.21865414    -0.80400
O228        O  0.25192392  0.36243077  0.14120106    -0.73900
Al229      Al  0.23518974  0.44243546  0.19840382     1.90100
O230        O  0.17835417  0.34433914  0.18557145    -0.73000
O231        O  0.19386462  0.40427782  0.09459317    -0.72900
O232        O  0.11786569  0.37841264  0.14019518    -0.78500
O233        O  0.14223936  0.45996095  0.10177211    -0.76700
O234        O  0.19140450  0.43277713  0.16458599    -1.12900
O235        O  0.20220096  0.51875295  0.13590338    -0.72000
C236        C  0.23853477  0.52855074  0.15488277     0.98700
C237        C  0.20750095  0.34353153  0.21149137     0.95100
Al238      Al  0.18588514  0.37730708  0.14182899     1.55600
O239        O  0.19224063  0.46341500  0.23578312    -0.76700
C240        C  0.16799721  0.43531898  0.08091964     0.99200
C241        C  0.28827443  0.38440660  0.15138784     0.94100
O242        O  0.28449354  0.42431293  0.16619790    -0.82000
O243        O  0.16810745  0.09071646  0.34411145    -0.81400
C244        C  0.36046723  0.11801386  0.33411795     0.97900
O245        O  0.33656471  0.14164294  0.35700933    -0.70600
O246        O  0.27176185  0.16937435  0.31293675    -0.74200
Al247      Al  0.26844885  0.14112649  0.35891529     1.49000
C248        C  0.23883248  0.16904353  0.29005918     0.93200
O249        O  0.25451914  0.04880398  0.27059064    -0.80400
O250        O  0.25550515  0.99944972  0.37217649    -0.73900
Al251      Al  0.21397211  0.07110072  0.30944241     1.90100
O252        O  0.30050817  0.00663414  0.30549170    -0.73000
O253        O  0.31510299  0.06150630  0.40097179    -0.72900
O254        O  0.35118860  0.07518739  0.32948979    -0.78500
O255        O  0.26527035  0.11897451  0.40757624    -0.76700
O256        O  0.26116324  0.08373990  0.33993467    -1.12900
O257        O  0.20235656  0.15487966  0.36289566    -0.72000
C258        C  0.16523964  0.13131603  0.35784540     0.98700
C259        C  0.28658070  0.01846102  0.27387739     0.95100
Al260      Al  0.30243956  0.03947660  0.35141062     1.55600
O261        O  0.21316027  0.13284060  0.28630846    -0.76700
C262        C  0.29108298  0.08814167  0.42146841     0.99200
C263        C  0.21849471  0.98655539  0.35553304     0.94100
O264        O  0.20359001  0.00870233  0.32762982    -0.82000
O265        O  0.38227613  0.70982808  0.84640829    -0.81400
C266        C  0.38133837  0.90731913  0.84176065     0.97900
O267        O  0.35128576  0.88346633  0.85920651    -0.70600
O268        O  0.31523482  0.82042704  0.81562407    -0.74200
Al269      Al  0.34409607  0.81633676  0.86229698     1.49000
C270        C  0.31404654  0.78808971  0.79188302     0.93200
O271        O  0.43187529  0.79359890  0.77321956    -0.80400
O272        O  0.48381213  0.78332389  0.87493282    -0.73900
Al273      Al  0.40697332  0.75435172  0.81202809     1.90100
O274        O  0.47887045  0.83293850  0.80980359    -0.73000
O275        O  0.43217590  0.84871175  0.90665027    -0.72900
O276        O  0.42240990  0.89194268  0.83879431    -0.78500
O277        O  0.36480736  0.81285087  0.91159309    -0.76700
O278        O  0.40018912  0.80227396  0.84376166    -1.12900
O279        O  0.32489604  0.75283926  0.86797771    -0.72000
C280        C  0.34306860  0.71312156  0.86259596     0.98700
C281        C  0.46692564  0.82026439  0.77763931     0.95100
Al282      Al  0.44997022  0.83651830  0.85663222     1.55600
O283        O  0.34720618  0.75939104  0.78931665    -0.76700
C284        C  0.40044151  0.83094885  0.92621961     0.99200
C285        C  0.49316152  0.74695904  0.85620634     0.94100
O286        O  0.46853212  0.73719966  0.82813629    -0.82000
O287        O  0.98108158  0.79830160  0.67692129    -0.81400
C288        C  0.09094140  0.63478076  0.66823745     0.97900
O289        O  0.04954344  0.64471013  0.67732518    -0.70600
O290        O  0.98458368  0.69422309  0.70805208    -0.74200
Al291      Al  0.01009030  0.69356642  0.65906579     1.49000
C292        C  0.99343501  0.71638139  0.73752158     0.93200
O293        O  0.10309837  0.78653581  0.71937394    -0.80400
O294        O  0.12589581  0.79417549  0.64185116    -0.73900
Al295      Al  0.04288716  0.78751826  0.69573864     1.90100
O296        O  0.14035523  0.72779115  0.69286442    -0.73000
O297        O  0.08543068  0.73127237  0.59804917    -0.72900
O298        O  0.11217419  0.66200349  0.64666762    -0.78500
O299        O  0.02619133  0.68344708  0.60718625    -0.76700
O300        O  0.05401587  0.73726148  0.66711206    -1.12900
O301        O  0.96454922  0.73750843  0.64158265    -0.72000
C302        C  0.95456986  0.77789392  0.65384439     0.98700
C303        C  0.13809809  0.75954986  0.71725320     0.95100
Al304      Al  0.11048344  0.72953484  0.64648699     1.55600
O305        O  0.01991645  0.75186571  0.73691880    -0.76700
C306        C  0.05254396  0.70616979  0.58530373     0.99200
C307        C  0.10522950  0.83259487  0.64620772     0.94100
O308        O  0.06460012  0.83212757  0.65989356    -0.82000
O309        O  0.47687628  0.73115598  0.18004049    -0.81400
C310        C  0.37454073  0.89403873  0.16846239     0.97900
O311        O  0.41564721  0.88175007  0.17675323    -0.70600
O312        O  0.48054547  0.82793629  0.20413632    -0.74200
Al313      Al  0.45051375  0.83122416  0.15667964     1.49000
C314        C  0.46738280  0.81253954  0.23510470     0.93200
O315        O  0.35178517  0.74503142  0.21798032    -0.80400
O316        O  0.33041993  0.73549301  0.14289577    -0.73900
Al317      Al  0.41365214  0.74371668  0.19655321     1.90100
O318        O  0.31844517  0.80612584  0.19272398    -0.73000
O319        O  0.37202703  0.79595027  0.09845586    -0.72900
O320        O  0.35110284  0.86844673  0.14659373    -0.78500
O321        O  0.43142388  0.84394282  0.10658840    -0.76700
O322        O  0.40420469  0.79163005  0.16660988    -1.12900
O323        O  0.48951478  0.78299545  0.13654199    -0.72000
C324        C  0.50044920  0.74513337  0.15244281     0.98700
C325        C  0.31728357  0.77264741  0.21523488     0.95100
Al326      Al  0.34798662  0.80081452  0.14649636     1.55600
O327        O  0.43458544  0.78277324  0.23699207    -0.76700
C328        C  0.40415535  0.82129001  0.08541756     0.99200
C329        C  0.35255106  0.69774888  0.14769619     0.94100
O330        O  0.39377573  0.69933534  0.16026562    -0.82000
O331        O  0.07479230  0.81676272  0.34653230    -0.81400
C332        C  0.07617249  0.61903607  0.34070541     0.97900
O333        O  0.10095633  0.64308326  0.36273974    -0.70600
O334        O  0.14090617  0.70207576  0.31784724    -0.74200
Al335      Al  0.10955054  0.71030033  0.36314023     1.49000
C336        C  0.14523816  0.73373731  0.29403093     0.93200
O337        O  0.02988443  0.73574625  0.26975063    -0.80400
O338        O  0.96814377  0.74279226  0.36702177    -0.73900
Al339      Al  0.05235322  0.77293498  0.31040154     1.90100
O340        O  0.97918628  0.69340127  0.30064171    -0.73000
O341        O  0.01902876  0.67826940  0.40247958    -0.72900
O342        O  0.03591732  0.63411527  0.33248580    -0.78500
O343        O  0.08437689  0.71745347  0.41073054    -0.76700
O344        O  0.05534634  0.72458490  0.34130405    -1.12900
O345        O  0.13181328  0.77390846  0.36779714    -0.72000
C346        C  0.11398470  0.81383610  0.36260311     0.98700
C347        C  0.99504585  0.70840092  0.27021348     0.95100
Al348      Al  0.00476559  0.68968461  0.35015056     1.55600
O349        O  0.11429200  0.76510244  0.29084322    -0.76700
C350        C  0.04845686  0.69810360  0.42387934     0.99200
C351        C  0.96247688  0.78128960  0.35011542     0.94100
O352        O  0.99012085  0.79146027  0.32403024    -0.82000
C353        C  0.27315185  0.76233479  0.23541541    -0.05000
C354        C  0.27462602  0.74157984  0.27071684    -0.02100
C355        C  0.23293626  0.72713737  0.28808247     0.02900
C356        C  0.18889646  0.73723506  0.27188245    -0.05000
C357        C  0.18738997  0.75619481  0.23597750    -0.02100
C358        C  0.22917869  0.76801030  0.21756573     0.02900
C359        C  0.31897000  0.73636190  0.28995078     0.37500
C360        C  0.14276380  0.76139736  0.21710218     0.37500
C361        C  0.22619665  0.78388330  0.17956051     0.35900
C362        C  0.23622367  0.70186033  0.32263053     0.35900
N363        N  0.22288595  0.79610417  0.14920757    -0.38900
N364        N  0.23989078  0.68147941  0.35004474    -0.38900
N365        N  0.10721274  0.76531559  0.20206696    -0.38300
N366        N  0.35427369  0.73240350  0.30533238    -0.38300
C367        C  0.04180819  0.70016941  0.46503067    -0.05000
C368        C  0.04950981  0.74322567  0.48375420    -0.02100
C369        C  0.05123105  0.74520447  0.52275909     0.02900
C370        C  0.04521271  0.70406576  0.54407717    -0.05000
C371        C  0.03379098  0.66155388  0.52546989    -0.02100
C372        C  0.03220726  0.65963970  0.48615870     0.02900
C373        C  0.05525657  0.78612886  0.46277041     0.37500
C374        C  0.02562834  0.61919070  0.54654344     0.37500
C375        C  0.02292055  0.61545307  0.46750911     0.35900
C376        C  0.05851276  0.79023869  0.54086658     0.35900
N377        N  0.01544492  0.58019815  0.45259791    -0.38900
N378        N  0.06442207  0.82616088  0.55519578    -0.38900
N379        N  0.01894765  0.58542015  0.56339499    -0.38300
N380        N  0.05984917  0.82034434  0.44609356    -0.38300
C381        C  0.40584435  0.82913325  0.96684789    -0.05000
C382        C  0.41269526  0.87039002  0.98792347    -0.02100
C383        C  0.41405694  0.86803333  0.02691663     0.02900
C384        C  0.40915395  0.82425252  0.04476677    -0.05000
C385        C  0.40623191  0.78274501  0.02342882    -0.02100
C386        C  0.40395996  0.78526115  0.98468691     0.02900
C387        C  0.41643993  0.91536194  0.96957929     0.37500
C388        C  0.40692950  0.73722019  0.04133712     0.37500
C389        C  0.40059633  0.74240298  0.96311175     0.35900
C390        C  0.41861883  0.91078808  0.04855046     0.35900
N391        N  0.39791564  0.70813848  0.94601641    -0.38900
N392        N  0.42238914  0.94481724  0.06589652    -0.38900
N393        N  0.40780291  0.70108044  0.05575295    -0.38300
N394        N  0.41952498  0.95119143  0.95486639    -0.38300
C395        C  0.27069818  0.78072313  0.77008948    -0.05000
C396        C  0.24477293  0.81967552  0.75783256    -0.02100
C397        C  0.19926347  0.81342642  0.74365739     0.02900
C398        C  0.17975656  0.76789576  0.74070972    -0.05000
C399        C  0.20478409  0.72933031  0.75443697    -0.02100
C400        C  0.25096282  0.73513681  0.76714556     0.02900
C401        C  0.26598785  0.86598537  0.75771145     0.37500
C402        C  0.18112835  0.68464863  0.75900213     0.37500
C403        C  0.27766559  0.69377865  0.77684779     0.35900
C404        C  0.17249313  0.85428834  0.73309817     0.35900
N405        N  0.29885053  0.66040163  0.78368173    -0.38900
N406        N  0.15126868  0.88748148  0.72593477    -0.38900
N407        N  0.16158031  0.64967773  0.76408540    -0.38300
N408        N  0.28305781  0.90281168  0.75704042    -0.38300
C409        C  0.14155682  0.85769053  0.37143643    -0.05000
C410        C  0.11885764  0.90143082  0.37606447    -0.02100
C411        C  0.14477085  0.94380115  0.37421096     0.02900
C412        C  0.19329073  0.94305446  0.36672925    -0.05000
C413        C  0.21676185  0.89973741  0.36656185    -0.02100
C414        C  0.19134984  0.85745082  0.37050692     0.02900
C415        C  0.06916961  0.90304238  0.38417226     0.37500
C416        C  0.26688875  0.89834047  0.35997287     0.37500
C417        C  0.21735406  0.81427694  0.37400363     0.35900
C418        C  0.12176289  0.98810501  0.38135748     0.35900
N419        N  0.23924192  0.78067961  0.37804630    -0.38900
N420        N  0.10309098  0.02303011  0.38811524    -0.38900
N421        N  0.30677282  0.89722883  0.35446159    -0.38300
N422        N  0.02967646  0.90453824  0.39117521    -0.38300
C423        C  0.35252265  0.93589644  0.18742637    -0.05000
C424        C  0.37991852  0.96456961  0.21118872    -0.02100
C425        C  0.35846351  0.99282560  0.23842996     0.02900
C426        C  0.30898301  0.99551113  0.24103560    -0.05000
C427        C  0.28166650  0.97234907  0.21395798    -0.02100
C428        C  0.30319719  0.94317225  0.18703016     0.02900
C429        C  0.43072511  0.96413492  0.20878821     0.37500
C430        C  0.23101925  0.97535707  0.21560790     0.37500
C431        C  0.27393740  0.92055363  0.15939823     0.35900
C432        C  0.38865777  0.01698554  0.26459227     0.35900
N433        N  0.25041709  0.90307014  0.13715236    -0.38900
N434        N  0.41565582  0.03426784  0.28430946    -0.38900
N435        N  0.19061745  0.97753476  0.21710021    -0.38300
N436        N  0.47115343  0.96319105  0.20702320    -0.38300
C437        C  0.13935929  0.51790322  0.26582210    -0.05000
C438        C  0.16663251  0.53833676  0.29429840    -0.02100
C439        C  0.14528393  0.56620405  0.32228966     0.02900
C440        C  0.09643859  0.57609265  0.32122437    -0.05000
C441        C  0.06871311  0.54890249  0.29655034    -0.02100
C442        C  0.08996595  0.52099199  0.26862660     0.02900
C443        C  0.21708426  0.53277848  0.29377332     0.37500
C444        C  0.01802309  0.54963167  0.29937467     0.37500
C445        C  0.06021565  0.49670271  0.24220583     0.35900
C446        C  0.17368294  0.58279425  0.35288969     0.35900
N447        N  0.03491605  0.47829562  0.22172403    -0.38900
N448        N  0.19619137  0.59479271  0.37784277    -0.38900
N449        N  0.97759056  0.54994790  0.30146255    -0.38300
N450        N  0.25733374  0.52830886  0.29319690    -0.38300
C451        C  0.32790537  0.65143964  0.14308683    -0.05000
C452        C  0.34034493  0.61323700  0.16585573    -0.02100
C453        C  0.31560438  0.57073477  0.16358900     0.02900
C454        C  0.27148855  0.56830958  0.14553602    -0.05000
C455        C  0.25927682  0.60576260  0.12177408    -0.02100
C456        C  0.28872541  0.64599971  0.11918331     0.02900
C457        C  0.37532332  0.61796614  0.19485710     0.37500
C458        C  0.21657003  0.60357273  0.10017394     0.37500
C459        C  0.27852864  0.68169714  0.09194707     0.35900
C460        C  0.33734976  0.52944991  0.17929770     0.35900
N461        N  0.27078448  0.70995748  0.06993254    -0.38900
N462        N  0.35626765  0.49729857  0.19156822    -0.38900
N463        N  0.18247412  0.60194532  0.08288637    -0.38300
N464        N  0.40243268  0.62101982  0.21857183    -0.38300
C465        C  0.21353808  0.29886871  0.23211575    -0.05000
C466        C  0.22677380  0.29947422  0.26966792    -0.02100
C467        C  0.23379010  0.25707171  0.28857252     0.02900
C468        C  0.22914173  0.21324670  0.26990446    -0.05000
C469        C  0.21530556  0.21247448  0.23256785    -0.02100
C470        C  0.20764107  0.25490358  0.21369577     0.02900
C471        C  0.23268600  0.34362675  0.28936614     0.37500
C472        C  0.21044896  0.16810019  0.21305516     0.37500
C473        C  0.19572074  0.25242398  0.17465838     0.35900
C474        C  0.24428114  0.25944852  0.32787504     0.35900
N475        N  0.18615477  0.24977598  0.14363489    -0.38900
N476        N  0.25261596  0.26255842  0.35909114    -0.38900
N477        N  0.20655729  0.13272880  0.19744321    -0.38300
N478        N  0.23767433  0.37870874  0.30520264    -0.38300
C479        C  0.13172927  0.87801051  0.63919091    -0.05000
C480        C  0.17879552  0.87720600  0.62588138    -0.02100
C481        C  0.20848910  0.91695376  0.62977150     0.02900
C482        C  0.19159631  0.95888963  0.64582267    -0.05000
C483        C  0.14298049  0.96197643  0.65341730    -0.02100
C484        C  0.11352816  0.92196722  0.65080397     0.02900
C485        C  0.19793057  0.83527361  0.60880913     0.37500
C486        C  0.12217102  0.00656620  0.66344878     0.37500
C487        C  0.06510859  0.92647397  0.66239803     0.35900
C488        C  0.25707949  0.91368771  0.61836882     0.35900
N489        N  0.02682970  0.93092558  0.67223711    -0.38900
N490        N  0.29573771  0.91103840  0.60905947    -0.38900
N491        N  0.10362654  0.04126370  0.67111258    -0.38300
N492        N  0.21348859  0.80192894  0.59528471    -0.38300
C493        C  0.32761715  0.00964850  0.76485786    -0.05000
C494        C  0.37432344  0.99354447  0.76208482    -0.02100
C495        C  0.39434918  0.96589081  0.79016587     0.02900
C496        C  0.36689643  0.95048723  0.82051877    -0.05000
C497        C  0.32220849  0.97124600  0.82557013    -0.02100
C498        C  0.30273194  0.00065202  0.79796027     0.02900
C499        C  0.40198947  0.00333775  0.72947167     0.37500
C500        C  0.29597218  0.96253395  0.85915612     0.37500
C501        C  0.25557940  0.01840344  0.80255392     0.35900
C502        C  0.44324625  0.95271238  0.78673088     0.40700
N503        N  0.21791094  0.03248460  0.80621161    -0.38900
N504        N  0.48231571  0.94265216  0.78412030    -0.38900
N505        N  0.27512162  0.95587386  0.88605465    -0.38300
N506        N  0.42463927  0.00935251  0.70347007    -0.38300
C507        C  0.29372900  0.08379112  0.54046973    -0.05000
C508        C  0.25069225  0.08196765  0.52123871    -0.02100
C509        C  0.25005607  0.08214364  0.48232955     0.02900
C510        C  0.29250144  0.08342932  0.46226049    -0.05000
C511        C  0.33559005  0.08213370  0.48144390    -0.02100
C512        C  0.33622319  0.08273512  0.52048953     0.02900
C513        C  0.20693877  0.07894349  0.54155153     0.37500
C514        C  0.37932675  0.08229784  0.46111942     0.37500
C515        C  0.38061762  0.08484996  0.53998679     0.35900
C516        C  0.20552851  0.08021763  0.46293072     0.35900
N517        N  0.41596118  0.08664687  0.55561873    -0.38900
N518        N  0.17009638  0.07875236  0.44741518    -0.38900
N519        N  0.41423007  0.08218255  0.44491142    -0.38300
N520        N  0.17220786  0.07634099  0.55788297    -0.38300
C521        C  0.15718847  0.53101135  0.73796174    -0.05000
C522        C  0.10865047  0.52879321  0.73000383    -0.02100
C523        C  0.08881589  0.55722251  0.70215411     0.02900
C524        C  0.11551628  0.59320778  0.68545182    -0.05000
C525        C  0.16496120  0.59270598  0.69098131    -0.02100
C526        C  0.18560457  0.56084944  0.71634983     0.02900
C527        C  0.07746365  0.50051493  0.75231317     0.37500
C528        C  0.19480014  0.62716847  0.67327053     0.37500
C529        C  0.23569587  0.56230528  0.72300452     0.35900
C530        C  0.04001172  0.55055722  0.69200209     0.35900
N531        N  0.27563648  0.56343661  0.72837132    -0.38900
N532        N  0.00113056  0.54513515  0.68395191    -0.38900
N533        N  0.21899890  0.65473600  0.65961409    -0.38300
N534        N  0.05047332  0.47996296  0.76977168    -0.38300
C535        C  0.26464216  0.58435716  0.86711163    -0.05000
C536        C  0.31315627  0.58412174  0.87464663    -0.02100
C537        C  0.33822765  0.62670848  0.87768349     0.02900
C538        C  0.31538708  0.66988465  0.87157243    -0.05000
C539        C  0.26558774  0.67000530  0.86881036    -0.02100
C540        C  0.24049353  0.62731046  0.86683317     0.02900
C541        C  0.33755358  0.54003683  0.87930252     0.37500
C542        C  0.23975722  0.71345080  0.86478804     0.37500
C543        C  0.19007026  0.62772621  0.86163930     0.35900
C544        C  0.38727268  0.62581446  0.88798309     0.35900
N545        N  0.14987164  0.62801753  0.85762103    -0.38900
N546        N  0.42609151  0.62449520  0.89708303    -0.38900
N547        N  0.21889206  0.74787205  0.86131430    -0.38300
N548        N  0.35780296  0.50538852  0.88341723    -0.38300
C549        C  0.16975058  0.44344116  0.96132006    -0.05000
C550        C  0.12664904  0.44119214  0.98037903    -0.02100
C551        C  0.12573697  0.44072390  0.01953686     0.02900
C552        C  0.16794914  0.44199027  0.03998832    -0.05000
C553        C  0.21087465  0.44698275  0.02092873    -0.02100
C554        C  0.21178148  0.44773332  0.98187448     0.02900
C555        C  0.08331791  0.43688476  0.95974054     0.37500
C556        C  0.25416889  0.45251976  0.04161642     0.37500
C557        C  0.25610391  0.45374144  0.96280422     0.35900
C558        C  0.08136381  0.43695304  0.03869189     0.35900
N559        N  0.29136369  0.45861935  0.94753880    -0.38900
N560        N  0.04591773  0.43417517  0.05398557    -0.38900
N561        N  0.28854068  0.45716859  0.05823841    -0.38300
N562        N  0.04874955  0.43345678  0.94323145    -0.38300
C563        C  0.24247889  0.31406643  0.76936277    -0.05000
C564        C  0.24800299  0.27183017  0.78962581    -0.02100
C565        C  0.25516614  0.22900964  0.77108449     0.02900
C566        C  0.25574779  0.22782701  0.73229213    -0.05000
C567        C  0.25051468  0.27004815  0.71205598    -0.02100
C568        C  0.24642789  0.31325025  0.73065636     0.02900
C569        C  0.24748783  0.27186222  0.82972937     0.37500
C570        C  0.24536634  0.26919383  0.67211935     0.37500
C571        C  0.24535514  0.35652783  0.70974970     0.35900
C572        C  0.26199417  0.18616678  0.79196664     0.35900
N573        N  0.24517769  0.39087384  0.69282784    -0.38900
N574        N  0.26735483  0.15202476  0.80859579    -0.38900
N575        N  0.24071207  0.26923467  0.64032667    -0.38300
N576        N  0.24711077  0.27037051  0.86168900    -0.38300
C577        C  0.49347378  0.82821528  0.26878007    -0.05000
C578        C  0.47975779  0.86839264  0.28895151    -0.02100
C579        C  0.51145342  0.89032385  0.31405186     0.02900
C580        C  0.55604676  0.87050685  0.32078082    -0.05000
C581        C  0.56488315  0.82510019  0.30610241    -0.02100
C582        C  0.53538762  0.80565706  0.27854404     0.02900
C583        C  0.43267134  0.88610989  0.28455223     0.37500
C584        C  0.60255764  0.79671547  0.32026438     0.37500
C585        C  0.54874281  0.76275410  0.25956120     0.35900
C586        C  0.49738547  0.93194035  0.33424042     0.35900
N587        N  0.55953539  0.72873279  0.24426228    -0.38900
N588        N  0.48600460  0.96504902  0.35048464    -0.38900
N589        N  0.63082824  0.77204148  0.33206413    -0.38300
N590        N  0.39452503  0.89912798  0.28179055    -0.38300
C591        C  0.84113348  0.87416785  0.36766109    -0.05000
C592        C  0.84605772  0.83237716  0.38856301    -0.02100
C593        C  0.88582166  0.80283865  0.38414683     0.02900
C594        C  0.92264426  0.81505208  0.35947645    -0.05000
C595        C  0.92065470  0.86047397  0.34308322    -0.02100
C596        C  0.88054429  0.88934055  0.34697270     0.02900
C597        C  0.81067495  0.82002416  0.41562074     0.37500
C598        C  0.95982008  0.87869343  0.32186585     0.37500
C599        C  0.88034860  0.93460919  0.32872985     0.35900
C600        C  0.88803418  0.75972690  0.40519166     0.35900
N601        N  0.88075974  0.97069459  0.31420512    -0.38900
N602        N  0.88965595  0.72547981  0.42219366    -0.38900
N603        N  0.99076317  0.89365399  0.30490756    -0.38300
N604        N  0.78268609  0.81029924  0.43742775    -0.38300
C605        C  0.73418549  0.81255734  0.27416133    -0.05000
C606        C  0.74284678  0.81529502  0.23615645    -0.02100
C607        C  0.74950293  0.77403456  0.21561973     0.02900
C608        C  0.74487594  0.72902560  0.23282183    -0.05000
C609        C  0.73641453  0.72707576  0.27126364    -0.02100
C610        C  0.73484915  0.76862264  0.29208621     0.02900
C611        C  0.74396533  0.86063579  0.21783486     0.37500
C612        C  0.72483834  0.68330124  0.28940972     0.37500
C613        C  0.73551761  0.76573563  0.33217121     0.35900
C614        C  0.75925690  0.77958767  0.17649653     0.35900
N615        N  0.73616476  0.76264041  0.36405183    -0.38900
N616        N  0.76644035  0.78540518  0.14538452    -0.38900
N617        N  0.71392446  0.64895694  0.30402296    -0.38300
N618        N  0.74507185  0.89668632  0.20327966    -0.38300
C619        C  0.97064707  0.69484360  0.23505044    -0.05000
C620        C  0.97667431  0.65000930  0.21939634    -0.02100
C621        C  0.94384201  0.63183503  0.19350030     0.02900
C622        C  0.90826088  0.66123321  0.17891247    -0.05000
C623        C  0.91052476  0.70980286  0.18836993    -0.02100
C624        C  0.93929422  0.72575346  0.21784089     0.02900
C625        C  0.02013971  0.62585091  0.22607729     0.37500
C626        C  0.88550181  0.74409934  0.16667852     0.37500
C627        C  0.93699610  0.77414103  0.23024783     0.35900
C628        C  0.94673347  0.58283237  0.18302626     0.35900
N629        N  0.93534499  0.81277626  0.24010173    -0.38900
N630        N  0.94907322  0.54353525  0.17508545    -0.38900
N631        N  0.86705773  0.77204545  0.14882945    -0.38300
N632        N  0.05652622  0.60883223  0.22944603    -0.38300
C633        C  0.54229549  0.71712663  0.13996284    -0.05000
C634        C  0.54261296  0.66767156  0.14366382    -0.02100
C635        C  0.58488162  0.64230608  0.14057472     0.02900
C636        C  0.62697103  0.66538331  0.13133283    -0.05000
C637        C  0.62480235  0.71295826  0.12056829    -0.02100
C638        C  0.58309862  0.73908159  0.12574797     0.02900
C639        C  0.49913636  0.64208761  0.14802530     0.37500
C640        C  0.66547940  0.73536745  0.10448977     0.37500
C641        C  0.58305337  0.78875145  0.11736468     0.35900
C642        C  0.58477682  0.59193871  0.14573858     0.35900
N643        N  0.58295523  0.82834061  0.11045160    -0.38900
N644        N  0.58404676  0.55166439  0.14932767    -0.38900
N645        N  0.69734447  0.75317574  0.09061271    -0.38300
N646        N  0.46495439  0.62044737  0.15018036    -0.38300
C647        C  0.64808787  0.94570638  0.54041837    -0.05000
C648        C  0.62746835  0.90844340  0.52021701    -0.02100
C649        C  0.62858486  0.90855322  0.48124148     0.02900
C650        C  0.65052181  0.94575663  0.46232138    -0.05000
C651        C  0.66749941  0.98483905  0.48230767    -0.02100
C652        C  0.66638838  0.98478277  0.52132795     0.02900
C653        C  0.60531100  0.86986324  0.53960608     0.37500
C654        C  0.68816494  0.02418121  0.46287737     0.37500
C655        C  0.68688726  0.02371831  0.54153897     0.35900
C656        C  0.60717004  0.87042949  0.46046447     0.35900
N657        N  0.70368286  0.05528225  0.55681956    -0.38900
N658        N  0.58981992  0.84030359  0.44375516    -0.38900
N659        N  0.70465812  0.05590147  0.44781475    -0.38300
N660        N  0.58750670  0.83920430  0.55511581    -0.38300
C661        C  0.49697936  0.83711986  0.74633932    -0.05000
C662        C  0.54456154  0.84576463  0.75417526    -0.02100
C663        C  0.57155027  0.87414618  0.73086141     0.02900
C664        C  0.55570302  0.88569229  0.69497196    -0.05000
C665        C  0.50951688  0.87255601  0.68493587    -0.02100
C666        C  0.47942836  0.85036834  0.71119196     0.02900
C667        C  0.56699570  0.82394781  0.78596331     0.37500
C668        C  0.49240802  0.88388383  0.64839523     0.37500
C669        C  0.43057299  0.84248193  0.70238726     0.35900
C670        C  0.61512883  0.89131487  0.74593182     0.35900
N671        N  0.39146156  0.83628898  0.69545001    -0.38900
N672        N  0.64783406  0.90222156  0.76273562    -0.38900
N673        N  0.47885496  0.89292515  0.61913326    -0.38300
N674        N  0.58519043  0.80641474  0.81090193    -0.38300
C675        C  0.82483875  0.85297270  0.63606227    -0.05000
C676        C  0.82414832  0.80397265  0.64350200    -0.02100
C677        C  0.86646704  0.77876296  0.64749544     0.02900
C678        C  0.90996987  0.80150544  0.64265475    -0.05000
C679        C  0.91027967  0.84798635  0.62918441    -0.02100
C680        C  0.86798952  0.87368171  0.62609383     0.02900
C681        C  0.78015097  0.77898923  0.64772613     0.37500
C682        C  0.95377244  0.86803237  0.61596641     0.37500
C683        C  0.86836112  0.91979868  0.60954502     0.35900
C684        C  0.86513990  0.72960840  0.65768188     0.35900
N685        N  0.86882034  0.95604499  0.59529324    -0.38900
N686        N  0.86412502  0.69030758  0.66550718    -0.38900
N687        N  0.98820945  0.88350971  0.60434911    -0.38300
N688        N  0.74531989  0.75845686  0.65059852    -0.38300
C689        C  0.79936215  0.58508252  0.03798253    -0.05000
C690        C  0.76180443  0.56372525  0.01880578    -0.02100
C691        C  0.75963657  0.56624558  0.97990558     0.02900
C692        C  0.79605405  0.58825881  0.96004705    -0.05000
C693        C  0.83450310  0.60798738  0.97915190    -0.02100
C694        C  0.83606066  0.60657112  0.01807647     0.02900
C695        C  0.72419415  0.54139508  0.03924045     0.37500
C696        C  0.87205984  0.63037635  0.95870502     0.37500
C697        C  0.87545833  0.62713052  0.03776903     0.35900
C698        C  0.71811824  0.54988671  0.96053937     0.35900
N699        N  0.90683022  0.64337549  0.05362703    -0.38900
N700        N  0.68475507  0.53759728  0.94503860    -0.38900
N701        N  0.90184806  0.64829398  0.94225870    -0.38300
N702        N  0.69439832  0.52350724  0.05570015    -0.38300
C703        C  0.73000316  0.71380265  0.75856388    -0.05000
C704        C  0.76756731  0.74364249  0.75065379    -0.02100
C705        C  0.75920325  0.78960932  0.73883234     0.02900
C706        C  0.71308417  0.80308745  0.72882099    -0.05000
C707        C  0.67622233  0.76942634  0.73159296    -0.02100
C708        C  0.68417988  0.72663939  0.74938398     0.02900
C709        C  0.81452995  0.72496865  0.75138116     0.37500
C710        C  0.63107994  0.77592673  0.71404148     0.37500
C711        C  0.64511583  0.69598545  0.75842089     0.35900
C712        C  0.79882086  0.82125075  0.73491982     0.35900
N713        N  0.61369497  0.67202044  0.76569845    -0.38900
N714        N  0.83062086  0.84625952  0.73208518    -0.38900
N715        N  0.59547846  0.77856294  0.69891954    -0.38300
N716        N  0.85133733  0.70844147  0.74997332    -0.38300
C717        C  0.90540875  0.66284393  0.82459906    -0.05000
C718        C  0.90840025  0.71223135  0.81871654    -0.02100
C719        C  0.93970239  0.73082636  0.79203421     0.02900
C720        C  0.97029435  0.70087885  0.77269427    -0.05000
C721        C  0.97498555  0.65436530  0.78518132    -0.02100
C722        C  0.94228098  0.63487988  0.81036230     0.02900
C723        C  0.87799378  0.74415219  0.83866175     0.37500
C724        C  0.01602658  0.62821163  0.77457118     0.37500
C725        C  0.94697656  0.58623971  0.82117293     0.35900
C726        C  0.93793902  0.78015033  0.78256626     0.35900
N727        N  0.95116648  0.54748362  0.82992797    -0.38900
N728        N  0.93662041  0.81947452  0.77487991    -0.38900
N729        N  0.05012856  0.60839178  0.76772552    -0.38300
N730        N  0.85375261  0.76973032  0.85447547    -0.38300
C731        C  0.62020007  0.66424932  0.86770939    -0.05000
C732        C  0.61685851  0.70857579  0.88540262    -0.02100
C733        C  0.57413989  0.73391290  0.88488614     0.02900
C734        C  0.53467627  0.71622934  0.86518321    -0.05000
C735        C  0.53699629  0.66961580  0.85106745    -0.02100
C736        C  0.57891496  0.64367316  0.85320794     0.02900
C737        C  0.65795397  0.72987531  0.90219110     0.37500
C738        C  0.49685363  0.64789651  0.83311141     0.37500
C739        C  0.57968910  0.59569884  0.83940477     0.35900
C740        C  0.57212977  0.77920599  0.90327113     0.35900
N741        N  0.58032684  0.55758132  0.82826641    -0.38900
N742        N  0.57061247  0.81517897  0.91818834    -0.38900
N743        N  0.46537766  0.63027356  0.81831317    -0.38300
N744        N  0.69060964  0.74711444  0.91559699    -0.38300
C745        C  0.04428315  0.21675583  0.65350870    -0.05000
C746        C  0.05840471  0.18981020  0.68434165    -0.02100
C747        C  0.10066916  0.16462229  0.68367068     0.02900
C748        C  0.12991423  0.16561496  0.65204121    -0.05000
C749        C  0.11616405  0.19297228  0.62130594    -0.02100
C750        C  0.07376002  0.21878042  0.62219459     0.02900
C751        C  0.03086525  0.18982337  0.71815279     0.37500
C752        C  0.14509905  0.19382235  0.58840301     0.37500
C753        C  0.06031257  0.24690189  0.59070931     0.35900
C754        C  0.11477328  0.13989831  0.71690795     0.35900
N755        N  0.04983811  0.26939168  0.56550434    -0.38900
N756        N  0.12517861  0.12044321  0.74368262    -0.38900
N757        N  0.16814166  0.19436173  0.56210687    -0.38300
N758        N  0.00953989  0.18940145  0.74534228    -0.38300
C759        C  0.00631878  0.33692628  0.75604948    -0.05000
C760        C  0.04843775  0.35751256  0.74354439    -0.02100
C761        C  0.08080358  0.37672644  0.76879130     0.02900
C762        C  0.07134488  0.37782133  0.80715951    -0.05000
C763        C  0.03064917  0.35491791  0.82010457    -0.02100
C764        C  0.99882742  0.33341404  0.79473033     0.02900
C765        C  0.05987497  0.35782466  0.70431397     0.37500
C766        C  0.02090266  0.35447542  0.85936292     0.37500
C767        C  0.95876719  0.30791992  0.80871496     0.35900
C768        C  0.12428661  0.39477893  0.75419999     0.35900
N769        N  0.92715144  0.28734978  0.82046619    -0.38900
N770        N  0.15775310  0.40793915  0.73966622    -0.38900
N771        N  0.01284574  0.35408810  0.89069997    -0.38300
N772        N  0.06974404  0.35860147  0.67329312    -0.38300
C773        C  0.84877597  0.42775018  0.69350263    -0.05000
C774        C  0.85240832  0.42144022  0.73210045    -0.02100
C775        C  0.83619452  0.45557150  0.75712417     0.02900
C776        C  0.81363154  0.49628657  0.74426524    -0.05000
C777        C  0.80687822  0.50164190  0.70567181    -0.02100
C778        C  0.82506448  0.46778859  0.68034216     0.02900
C779        C  0.86933287  0.37800469  0.74720800     0.37500
C780        C  0.78077420  0.54145964  0.69213553     0.37500
C781        C  0.81776989  0.47300953  0.64096896     0.35900
C782        C  0.84005083  0.44645914  0.79658172     0.35900
N783        N  0.81190187  0.47691192  0.60947296    -0.38900
N784        N  0.84350709  0.43804146  0.82773575    -0.38900
N785        N  0.75951511  0.57308909  0.68142824    -0.38300
N786        N  0.88083286  0.34438787  0.76220893    -0.38300
C787        C  0.77003043  0.07328010  0.64066399    -0.05000
C788        C  0.74964735  0.11619746  0.62935983    -0.02100
C789        C  0.77779966  0.15672565  0.62430066     0.02900
C790        C  0.82683875  0.15489868  0.62988145    -0.05000
C791        C  0.84757643  0.11133091  0.63807003    -0.02100
C792        C  0.81953586  0.07136092  0.64482527     0.02900
C793        C  0.69911564  0.12046115  0.62679578     0.37500
C794        C  0.89818725  0.10823872  0.64139270     0.37500
C795        C  0.84213335  0.02970836  0.65911518     0.35900
C796        C  0.75531429  0.20126231  0.61699826     0.35900
N797        N  0.86060224  0.99746545  0.67174550    -0.38900
N798        N  0.73682765  0.23659042  0.61148994    -0.38900
N799        N  0.93848992  0.10576096  0.64399124    -0.38300
N800        N  0.65883364  0.12393939  0.62481984    -0.38300
C801        C  0.47124656  0.18808830  0.73544784    -0.05000
C802        C  0.48615744  0.14905486  0.71443397    -0.02100
C803        C  0.45643837  0.12962894  0.68674413     0.02900
C804        C  0.41369136  0.15178316  0.67781290    -0.05000
C805        C  0.40615567  0.19746423  0.69223784    -0.02100
C806        C  0.43239923  0.21376389  0.72285566     0.02900
C807        C  0.53314701  0.13145438  0.71948652     0.37500
C808        C  0.37500137  0.22964499  0.67377910     0.37500
C809        C  0.42000954  0.25763448  0.74078162     0.35900
C810        C  0.47187110  0.08994750  0.66489873     0.35900
N811        N  0.40988307  0.29264443  0.75492371    -0.38900
N812        N  0.48476459  0.05875250  0.64707400    -0.38900
N813        N  0.35172993  0.25647068  0.65853970    -0.38300
N814        N  0.57146872  0.11908846  0.72253019    -0.38300
C815        C  0.42713892  0.31715465  0.85548481    -0.05000
C816        C  0.39125538  0.30680688  0.88137441    -0.02100
C817        C  0.35258521  0.33736111  0.88564457     0.02900
C818        C  0.34717830  0.37669349  0.86226169    -0.05000
C819        C  0.38528884  0.38967403  0.83936690    -0.02100
C820        C  0.42562635  0.36134645  0.83741128     0.02900
C821        C  0.39285511  0.26434240  0.90322519     0.37500
C822        C  0.38282561  0.43074248  0.81580591     0.37500
C823        C  0.46554377  0.37879677  0.81670710     0.35900
C824        C  0.31834464  0.32831639  0.91438563     0.35900
N825        N  0.49690682  0.39363908  0.80020880    -0.38900
N826        N  0.29113861  0.32137730  0.93743033    -0.38900
N827        N  0.38131735  0.46319258  0.79673668    -0.38300
N828        N  0.39392830  0.23051201  0.92075562    -0.38300
C829        C  0.69230575  0.24543193  0.77177071    -0.05000
C830        C  0.69382195  0.27208004  0.73906533    -0.02100
C831        C  0.73692207  0.28633918  0.72474650     0.02900
C832        C  0.77903812  0.26650379  0.73828659    -0.05000
C833        C  0.77804976  0.23938364  0.77063375    -0.02100
C834        C  0.73508418  0.23088334  0.78841504     0.02900
C835        C  0.65138473  0.28355555  0.71883603     0.37500
C836        C  0.82075529  0.21928652  0.78537652     0.37500
C837        C  0.73611030  0.20857184  0.82435090     0.35900
C838        C  0.73715447  0.32202393  0.69614381     0.35900
N839        N  0.73797779  0.19141397  0.85321940    -0.38900
N840        N  0.73595071  0.35070318  0.67363657    -0.38900
N841        N  0.85465790  0.20303064  0.79718700    -0.38300
N842        N  0.61782475  0.29238661  0.70234923    -0.38300
C843        C  0.60213964  0.08297196  0.82097443    -0.05000
C844        C  0.65059550  0.07159137  0.82276915    -0.02100
C845        C  0.67190098  0.04294069  0.79506482     0.02900
C846        C  0.64501642  0.02381152  0.76575431    -0.05000
C847        C  0.59563650  0.02920343  0.76747774    -0.02100
C848        C  0.57445329  0.05754519  0.79504942     0.02900
C849        C  0.67858076  0.08780130  0.85370599     0.37500
C850        C  0.56522806  0.00722481  0.74032051     0.37500
C851        C  0.52365580  0.06104876  0.79561096     0.35900
C852        C  0.72198795  0.03519710  0.79572707     0.35900
N853        N  0.48324356  0.06401897  0.79563334    -0.38900
N854        N  0.76198857  0.02892020  0.79615116    -0.38900
N855        N  0.53796452  0.99171808  0.71994907    -0.38300
N856        N  0.70076042  0.09963509  0.87888607    -0.38300
C857        C  0.69117464  0.45318112  0.84635596    -0.05000
C858        C  0.69334480  0.42467424  0.87819465    -0.02100
C859        C  0.66560609  0.38326670  0.88061563     0.02900
C860        C  0.63686939  0.36899345  0.85065296    -0.05000
C861        C  0.63618991  0.39702802  0.81832092    -0.02100
C862        C  0.66270842  0.43869420  0.81637059     0.02900
C863        C  0.72410771  0.43772731  0.90841010     0.37500
C864        C  0.61023720  0.38251705  0.78565082     0.37500
C865        C  0.66234959  0.46540642  0.78218908     0.35900
C866        C  0.66538927  0.35619562  0.91441470     0.35900
N867        N  0.66172616  0.48615552  0.75476857    -0.38900
N868        N  0.66473983  0.33469578  0.94146649    -0.38900
N869        N  0.59018397  0.37241258  0.75894022    -0.38300
N870        N  0.74907737  0.44757941  0.93246081    -0.38300
C871        C  0.11789163  0.15339798  0.36444696    -0.05000
C872        C  0.11359827  0.19564779  0.38513153    -0.02100
C873        C  0.07202581  0.22269015  0.38340551     0.02900
C874        C  0.03285108  0.20678021  0.36263289    -0.05000
C875        C  0.03461794  0.16063051  0.34764767    -0.02100
C876        C  0.07708292  0.13543127  0.34671985     0.02900
C877        C  0.15205970  0.21202208  0.40814733     0.37500
C878        C  0.99279988  0.13826811  0.33268955     0.37500
C879        C  0.07836286  0.09238855  0.32506716     0.35900
C880        C  0.07079532  0.26738427  0.40253381     0.35900
N881        N  0.07877964  0.05834769  0.30749278    -0.38900
N882        N  0.07072890  0.30291270  0.41808045    -0.38900
N883        N  0.95980692  0.12000463  0.32070680    -0.38300
N884        N  0.18257540  0.22511914  0.42663084    -0.38300
C885        C  0.00293114  0.31692354  0.23799710    -0.05000
C886        C  0.04956249  0.32798789  0.24704501    -0.02100
C887        C  0.07533455  0.35921354  0.22520164     0.02900
C888        C  0.06070664  0.37073216  0.18896614    -0.05000
C889        C  0.01726911  0.35223613  0.17661612    -0.02100
C890        C  0.98797480  0.32604198  0.20122388     0.02900
C891        C  0.07165032  0.30707176  0.27934369     0.37500
C892        C  0.00129041  0.36290319  0.13962852     0.37500
C893        C  0.94435874  0.30653420  0.18777553     0.35900
C894        C  0.11375511  0.38226833  0.24355191     0.35900
N895        N  0.90996529  0.29051392  0.17629173    -0.38900
N896        N  0.14161368  0.39763369  0.26335529    -0.38900
N897        N  0.98817548  0.37172063  0.11020400    -0.38300
N898        N  0.08956454  0.29035943  0.30476247    -0.38300
C899        C  0.90210125  0.33447497  0.53935416    -0.05000
C900        C  0.94261284  0.34882698  0.51960200    -0.02100
C901        C  0.94237881  0.35077269  0.48036877     0.02900
C902        C  0.90180036  0.33799114  0.46005612    -0.05000
C903        C  0.85983104  0.32924480  0.48002469    -0.02100
C904        C  0.86006422  0.32672878  0.51892588     0.02900
C905        C  0.98445512  0.36333016  0.53940751     0.37500
C906        C  0.81512711  0.32391299  0.46097553     0.37500
C907        C  0.81599249  0.31573579  0.53715094     0.35900
C908        C  0.98368428  0.36767630  0.46133978     0.35900
N909        N  0.78047977  0.30731768  0.55106258    -0.38900
N910        N  0.01642010  0.38237485  0.44649207    -0.38900
N911        N  0.77943856  0.31946291  0.44613633    -0.38300
N912        N  0.01780484  0.37523784  0.55510625    -0.38300
C913        C  0.82769483  0.50474569  0.25547099    -0.05000
C914        C  0.82672677  0.51291873  0.29415845    -0.02100
C915        C  0.84577615  0.47940349  0.31913469     0.02900
C916        C  0.86603468  0.43752964  0.30565154    -0.05000
C917        C  0.86506994  0.42900537  0.26721409    -0.02100
C918        C  0.84803989  0.46265967  0.24235840     0.02900
C919        C  0.80837497  0.55656959  0.30832090     0.37500
C920        C  0.87373986  0.38250086  0.25307724     0.37500
C921        C  0.84957723  0.45187023  0.20300595     0.35900
C922        C  0.84373578  0.48748997  0.35864954     0.35900
N923        N  0.85170930  0.44223286  0.17193105    -0.38900
N924        N  0.84182479  0.49362059  0.39026203    -0.38900
N925        N  0.87690443  0.34555923  0.24028847    -0.38300
N926        N  0.79458673  0.59154587  0.32029250    -0.38300
C927        C  0.75595676  0.08458483  0.36592597    -0.05000
C928        C  0.73371773  0.12839986  0.36285571    -0.02100
C929        C  0.76031826  0.17027042  0.36515668     0.02900
C930        C  0.80993501  0.16839168  0.36902266    -0.05000
C931        C  0.83048210  0.12496946  0.37807870    -0.02100
C932        C  0.80361391  0.08324938  0.37650659     0.02900
C933        C  0.68390175  0.13040560  0.35514692     0.37500
C934        C  0.87869107  0.12351285  0.39060848     0.37500
C935        C  0.82473599  0.03906920  0.38683245     0.35900
C936        C  0.73620372  0.21478650  0.36215865     0.35900
N937        N  0.84186399  0.00426781  0.39591583    -0.38900
N938        N  0.71666017  0.25016899  0.36014780    -0.38900
N939        N  0.91687521  0.12253434  0.40129905    -0.38300
N940        N  0.64415401  0.13194832  0.34906110    -0.38300
C941        C  0.45971584  0.18029373  0.25689572    -0.05000
C942        C  0.41663431  0.16168939  0.24477966    -0.02100
C943        C  0.38449397  0.14288131  0.27021746     0.02900
C944        C  0.39485410  0.14119288  0.30854602    -0.05000
C945        C  0.43780145  0.16063091  0.32092599    -0.02100
C946        C  0.46993094  0.18059908  0.29520855     0.02900
C947        C  0.40422831  0.16308823  0.20573383     0.37500
C948        C  0.44957104  0.15880509  0.35981520     0.37500
C949        C  0.51392991  0.20030105  0.30794392     0.35900
C950        C  0.34014345  0.12680353  0.25566299     0.35900
N951        N  0.54909765  0.21616550  0.31798570    -0.38900
N952        N  0.30622271  0.11605520  0.24038501    -0.38900
N953        N  0.45924575  0.15726948  0.39085583    -0.38300
N954        N  0.39368360  0.16383268  0.17483867    -0.38300
C955        C  0.42002736  0.30822884  0.15474963    -0.05000
C956        C  0.40695436  0.33891263  0.18380767    -0.02100
C957        C  0.36479387  0.36425698  0.18209321     0.02900
C958        C  0.33508366  0.36065651  0.15070691    -0.05000
C959        C  0.34814355  0.32998290  0.12154013    -0.02100
C960        C  0.38997604  0.30332072  0.12384806     0.02900
C961        C  0.43531869  0.34243876  0.21715613     0.37500
C962        C  0.31882578  0.32614600  0.08890696     0.37500
C963        C  0.40192908  0.27084206  0.09442308     0.35900
C964        C  0.35096197  0.39108234  0.21452328     0.35900
N965        N  0.41114794  0.24463881  0.07102499    -0.38900
N966        N  0.34100486  0.41181007  0.24094859    -0.38900
N967        N  0.29543745  0.32322506  0.06284001    -0.38300
N968        N  0.45743167  0.34561209  0.24389320    -0.38300
C969        C  0.55141878  0.20455626  0.96262186    -0.05000
C970        C  0.53189012  0.24230123  0.98268183    -0.02100
C971        C  0.53350032  0.24268189  0.02179325     0.02900
C972        C  0.55487260  0.20537794  0.04105011    -0.05000
C973        C  0.57387622  0.16741570  0.02091253    -0.02100
C974        C  0.57201633  0.16694661  0.98185633     0.02900
C975        C  0.51096312  0.28114415  0.96294642     0.37500
C976        C  0.59541209  0.12881693  0.04048577     0.37500
C977        C  0.59250095  0.12836380  0.96129288     0.35900
C978        C  0.51537569  0.28261425  0.04216428     0.35900
N979        N  0.60882690  0.09770565  0.94472982    -0.38900
N980        N  0.50119809  0.31458168  0.05844413    -0.38900
N981        N  0.61258348  0.09814774  0.05627553    -0.38300
N982        N  0.49434731  0.31207655  0.94709320    -0.38300
C983        C  0.67474790  0.25998199  0.24887095    -0.05000
C984        C  0.70350243  0.22176339  0.25664726    -0.02100
C985        C  0.75029028  0.22917105  0.26694935     0.02900
C986        C  0.76745107  0.27571715  0.27205518    -0.05000
C987        C  0.73603813  0.31400347  0.26796803    -0.02100
C988        C  0.68989868  0.30585851  0.25626799     0.02900
C989        C  0.68368894  0.17492184  0.25558383     0.37500
C990        C  0.75019958  0.36207662  0.27547178     0.37500
C991        C  0.65783004  0.34477490  0.25147852     0.35900
C992        C  0.77952689  0.18836195  0.27297800     0.35900
N993        N  0.63226694  0.37586744  0.24828296    -0.38900
N994        N  0.80235337  0.15542902  0.27752329    -0.38900
N995        N  0.75998671  0.40067135  0.28190871    -0.38300
N996        N  0.66712467  0.13788435  0.25610253    -0.38300
C997        C  0.61774979  0.08897277  0.18182499    -0.05000
C998        C  0.58666007  0.06107183  0.20304840    -0.02100
C999        C  0.60408900  0.02954353  0.22995671     0.02900
C1000       C  0.65282650  0.02380687  0.23562880    -0.05000
C1001       C  0.68369379  0.04591206  0.21051927    -0.02100
C1002       C  0.66643899  0.07864198  0.18418192     0.02900
C1003       C  0.53639694  0.06603168  0.19895281     0.37500
C1004       C  0.73360060  0.03762136  0.21336301     0.37500
C1005       C  0.69940411  0.10315178  0.16063172     0.35900
C1006       C  0.57121633  0.00329062  0.25225830     0.35900
N1007       N  0.72580755  0.12291291  0.14205055    -0.38900
N1008       N  0.54429958  0.98271936  0.26971246    -0.38900
N1009       N  0.77341938  0.03075976  0.21548999    -0.38300
N1010       N  0.49622039  0.06939269  0.19580361    -0.38300
C1011       C  0.63540493  0.37552603  0.14354965    -0.05000
C1012       C  0.67881127  0.38014870  0.12484795    -0.02100
C1013       C  0.70618641  0.42181444  0.12872869     0.02900
C1014       C  0.69226427  0.45802968  0.15352291    -0.05000
C1015       C  0.64848355  0.45283573  0.17180552    -0.02100
C1016       C  0.61872082  0.41469108  0.16366693     0.02900
C1017       C  0.69590432  0.34208277  0.10192665     0.37500
C1018       C  0.63486954  0.48404337  0.20177369     0.37500
C1019       C  0.57046133  0.41604961  0.17638588     0.35900
C1020       C  0.74884238  0.42674309  0.10739094     0.35900
N1021       N  0.53196836  0.41741215  0.18628360    -0.38900
N1022       N  0.78280267  0.43065450  0.09023020    -0.38900
N1023       N  0.62398216  0.50837498  0.22596723    -0.38300
N1024       N  0.70957911  0.31182608  0.08347881    -0.38300
loop_ 
_geom_bond_atom_site_label_1 
_geom_bond_atom_site_label_2 
_geom_bond_distance 
_geom_bond_site_symmetry_2 
_ccdc_geom_bond_type 
O1           C16   1.261       .  A
O1           Al9   1.883       .  S
C2           O12   1.258       .  A
C2            O3   1.272       .  A
C2          C997   1.521       .  S
O3           Al5   1.957       .  S
O4            C6   1.257       .  A
O4           Al5   1.897       .  S
Al5          O13   1.901       .  S
Al5          O15   1.955       .  S
Al5          O14   1.779       .  S
C6           O19   1.260       .  A
C6          C941   1.493       .  S
O7           C17   1.259       .  A
O7           Al9   1.887       .  S
O8           C21   1.268       .  A
O8          Al18   1.935       .  S
Al9          O22   1.906       .  S
Al9          O19   1.933       .  S
Al9          O14   1.781       .  S
O10          C17   1.260       .  A
O10         Al18   1.886       .  S
O11          C20   1.261       .  A
O11         Al18   1.920       .  S
O12         Al18   1.894       .  S
O13          C20   1.257       .  A
O14         Al18   1.790       .  S
O15          C16   1.272       .  A
C16         C955   1.496       .  S
C17         C983   1.451       .  S
C20         C972   1.488       .  S
C21          O22   1.263       .  A
C21        C1011   1.510       .  S
O23          C38   1.267       .  A
O23         Al31   1.923       .  S
C24          O34   1.263       .  A
C24          O25   1.264       .  A
C24         C916   1.502       .  S
O25         Al27   1.939       .  S
O26          C28   1.254       .  A
O26         Al27   1.849       .  S
Al27         O35   1.858       .  S
Al27         O37   1.905       .  S
Al27         O36   1.777       .  S
C28          O41   1.266       .  A
C28         C986   1.482       .  S
O29          C39   1.266       .  A
O29         Al31   1.944       .  S
O30          C43   1.271       .  A
O30         Al40   1.933       .  S
Al31         O44   1.910       .  S
Al31         O41   1.920       .  S
Al31         O36   1.785       .  S
O32          C39   1.265       .  A
O32         Al40   1.900       .  S
O33          C42   1.269       .  A
O33         Al40   1.964       .  S
O34         Al40   1.915       .  S
O35          C42   1.252       .  A
O36         Al40   1.776       .  S
O37          C38   1.259       .  A
C38         C930   1.503       .  S
C39         C885   1.512   1_655  S
C42         C902   1.509       .  S
C43          O44   1.266       .  A
C43         C874   1.515   1_655  S
O45          C60   1.262       .  A
O45         Al53   1.896       .  S
C46          O56   1.264       .  A
C46          O47   1.271       .  A
C46         C843   1.528       .  S
O47         Al49   1.952       .  S
O48          C50   1.251       .  A
O48         Al49   1.868       .  S
Al49         O57   1.887       .  S
Al49         O59   1.961       .  S
Al49         O58   1.776       .  S
C50          O63   1.263       .  A
C50         C829   1.481       .  S
O51          C61   1.260       .  A
O51         Al53   1.909       .  S
O52          C65   1.268       .  A
O52         Al62   1.923       .  S
Al53         O66   1.921       .  S
Al53         O63   1.910       .  S
Al53         O58   1.766       .  S
O54          C61   1.269       .  A
O54         Al62   1.950       .  S
O55          C64   1.267       .  A
O55         Al62   1.946       .  S
O56         Al62   1.900       .  S
O57          C64   1.257       .  A
O58         Al62   1.770       .  S
O59          C60   1.272       .  A
C60         C860   1.501       .  S
C61         C801   1.492       .  S
C64         C969   1.485       .  S
C65          O66   1.267       .  A
C65         C815   1.512       .  S
O67          C82   1.262       .  A
O67         Al75   1.881       .  S
C68          O78   1.258       .  A
C68          O69   1.276       .  A
C68         C773   1.498       .  S
O69         Al71   1.968       .  S
O70          C72   1.257       .  A
O70         Al71   1.888       .  S
Al71         O79   1.925       .  S
Al71         O81   1.945       .  S
Al71         O80   1.779       .  S
C72          O85   1.261       .  A
C72         C759   1.500   1_655  S
O73          C83   1.264       .  A
O73         Al75   1.916       .  S
O74          C87   1.273       .  A
O74         Al84   1.923       .  S
Al75         O88   1.920       .  S
Al75         O85   1.941       .  S
Al75         O80   1.780       .  S
O76          C83   1.249       .  A
O76         Al84   1.855       .  S
O77          C86   1.251       .  A
O77         Al84   1.884       .  S
O78         Al84   1.883       .  S
O79          C86   1.259       .  A
O80         Al84   1.786       .  S
O81          C82   1.271       .  A
C82         C745   1.494   1_655  S
C83         C832   1.474       .  S
C86         C899   1.512       .  S
C87          O88   1.269       .  A
C87         C790   1.494       .  S
O89         C104   1.265       .  A
O89         Al97   1.917       .  S
C90         O100   1.273       .  A
C90          O91   1.258       .  A
C90         C717   1.519       .  S
O91         Al93   1.879       .  S
O92          C94   1.259       .  A
O92         Al93   1.884       .  S
Al93        O101   1.904       .  S
Al93        O103   1.921       .  S
Al93        O102   1.786       .  S
C94         O107   1.261       .  A
C94         C703   1.453       .  S
O95         C105   1.262       .  A
O95         Al97   1.940       .  S
O96         C109   1.272       .  A
O96        Al106   1.961       .  S
Al97        O110   1.882       .  S
Al97        O107   1.891       .  S
Al97        O102   1.782       .  S
O98         C105   1.257       .  A
O98        Al106   1.897       .  S
O99         C108   1.256       .  A
O99        Al106   1.892       .  S
O100       Al106   1.963       .  S
O101        C108   1.257       .  A
O102       Al106   1.778       .  S
O103        C104   1.266       .  A
C104        C731   1.503       .  S
C105        C776   1.497       .  S
C108        C692   1.476       .  S
C109        O110   1.261       .  A
C109        C857   1.495       .  S
O111        C126   1.268       .  A
O111       Al119   1.916   1_545  S
C112        O122   1.266       .  A
C112        O113   1.260       .  A
C112        C664   1.502       .  S
O113       Al115   1.904       .  S
O114        C116   1.255       .  A
O114       Al115   1.906   1_545  S
Al115       O123   1.931       .  S
Al115       O125   1.918   1_565  S
Al115       O124   1.791       .  S
C116        O129   1.268   1_545  A
C116        C846   1.516       .  S
O117        C127   1.265       .  A
O117       Al119   1.918       .  S
O118        C131   1.260       .  A
O118       Al128   1.907       .  S
Al119       O132   1.936       .  S
Al119       O129   1.951       .  S
Al119       O124   1.786       .  S
O120        C127   1.251       .  A
O120       Al128   1.844       .  S
O121        C130   1.253       .  A
O121       Al128   1.878       .  S
O122       Al128   1.939       .  S
O123        C130   1.261       .  A
O124       Al128   1.796       .  S
O125        C126   1.271       .  A
C126        C787   1.506       .  S
C127        C706   1.482       .  S
C130        C647   1.482       .  S
C131        O132   1.268       .  A
C131        C675   1.509       .  S
O133        C148   1.261       .  A
O133       Al141   1.879       .  S
C134        O144   1.261       .  A
C134        O135   1.276       .  A
C134        C622   1.520       .  S
O135       Al137   1.964       .  S
O136        C138   1.252       .  A
O136       Al137   1.882       .  S
Al137       O145   1.899       .  S
Al137       O147   1.963       .  S
Al137       O146   1.774       .  S
C138        O151   1.265       .  A
C138        C913   1.503       .  S
O139        C149   1.268       .  A
O139       Al141   1.924       .  S
O140        C153   1.272       .  A
O140       Al150   1.923       .  S
Al141       O154   1.941       .  S
Al141       O151   1.959       .  S
Al141       O146   1.774       .  S
O142        C149   1.250       .  A
O142       Al150   1.864       .  S
O143        C152   1.254       .  A
O143       Al150   1.897       .  S
O144       Al150   1.886       .  S
O145        C152   1.254       .  A
O146       Al150   1.783       .  S
O147        C148   1.274       .  A
C148       C1014   1.515       .  S
C149        C608   1.491       .  S
C152        C689   1.477       .  S
C153        O154   1.272       .  A
C153        C636   1.499       .  S
O155        C170   1.263       .  A
O155       Al163   1.917       .  S
C156        O166   1.266       .  A
C156        O157   1.265       .  A
C156        C580   1.512       .  S
O157       Al159   1.938       .  S
O158        C160   1.254       .  A
O158       Al159   1.850       .  S
Al159       O167   1.883       .  S
Al159       O169   1.928       .  S
Al159       O168   1.789       .  S
C160        O173   1.263       .  A
C160        C605   1.466       .  S
O161        C171   1.266   1_565  A
O161       Al163   1.942       .  S
O162        C175   1.268       .  A
O162       Al172   1.919   1_545  S
Al163       O176   1.906   1_565  S
Al163       O173   1.906       .  S
Al163       O168   1.789       .  S
O164        C171   1.260       .  A
O164       Al172   1.913   1_545  S
O165        C174   1.264       .  A
O165       Al172   1.930       .  S
O166       Al172   1.928       .  S
O167        C174   1.259       .  A
O168       Al172   1.789       .  S
O169        C170   1.262       .  A
C170        C591   1.524       .  S
C171       C1000   1.515       .  S
C174        C650   1.478       .  S
C175        O176   1.264       .  A
C175        C927   1.490       .  S
O177        C192   1.259       .  A
O177       Al185   1.900       .  S
C178        O188   1.260       .  A
C178        O179   1.267       .  A
C178        C762   1.500       .  S
O179       Al181   1.945       .  S
O180        C182   1.255       .  A
O180       Al181   1.858       .  S
Al181       O189   1.881       .  S
Al181       O191   1.917       .  S
Al181       O190   1.785       .  S
C182        O195   1.269       .  A
C182        C563   1.478       .  S
O183        C193   1.267       .  A
O183       Al185   1.928       .  S
O184        C197   1.266       .  A
O184       Al194   1.906       .  S
Al185       O198   1.912       .  S
Al185       O195   1.945       .  S
Al185       O190   1.781       .  S
O186        C193   1.261       .  A
O186       Al194   1.918       .  S
O187        C196   1.267       .  A
O187       Al194   1.948       .  S
O188       Al194   1.899       .  S
O189        C196   1.256       .  A
O190       Al194   1.783       .  S
O191        C192   1.261       .  A
C192        C818   1.503       .  S
C193        C521   1.503       .  S
C196        C549   1.493       .  S
C197        O198   1.266       .  A
C197        C535   1.483       .  S
O199        C214   1.271   1_545  A
O199       Al207   1.934       .  S
C200        O210   1.269       .  A
C200        O201   1.268       .  A
C200        C804   1.509       .  S
O201       Al203   1.928       .  S
O202        C204   1.262       .  A
O202       Al203   1.921       .  S
Al203       O211   1.931       .  S
Al203       O213   1.925       .  S
Al203       O212   1.778       .  S
C204        O217   1.262       .  A
C204        C493   1.505       .  S
O205        C215   1.265       .  A
O205       Al207   1.929       .  S
O206        C219   1.262       .  A
O206       Al216   1.928       .  S
Al207       O220   1.893       .  S
Al207       O217   1.921       .  S
Al207       O212   1.773       .  S
O208        C215   1.251       .  A
O208       Al216   1.855       .  S
O209        C218   1.257       .  A
O209       Al216   1.877       .  S
O210       Al216   1.940       .  S
O211        C218   1.264       .  A
O212       Al216   1.777       .  S
O213        C214   1.271   1_545  A
C214        C482   1.509       .  S
C215        C566   1.475       .  S
C218        C507   1.482       .  S
C219        O220   1.259       .  A
C219        C748   1.497       .  S
O221        C236   1.266       .  A
O221       Al229   1.903       .  S
C222        O232   1.270       .  A
C222        O223   1.264       .  A
C222        C888   1.509       .  S
O223       Al225   1.921       .  S
O224        C226   1.262       .  A
O224       Al225   1.926       .  S
Al225       O233   1.946       .  S
Al225       O235   1.940       .  S
Al225       O234   1.782       .  S
C226        O239   1.266       .  A
C226        C437   1.509       .  S
O227        C237   1.270       .  A
O227       Al229   1.944       .  S
O228        C241   1.264       .  A
O228       Al238   1.935       .  S
Al229       O242   1.900       .  S
Al229       O239   1.922       .  S
Al229       O234   1.768       .  S
O230        C237   1.254       .  A
O230       Al238   1.857       .  S
O231        C240   1.258       .  A
O231       Al238   1.891       .  S
O232       Al238   1.944       .  S
O233        C240   1.266       .  A
O234       Al238   1.786       .  S
O235        C236   1.273       .  A
C236        C454   1.510       .  S
C237        C465   1.490       .  S
C240        C552   1.494       .  S
C241        O242   1.260       .  A
C241        C958   1.501       .  S
O243        C258   1.260       .  A
O243       Al251   1.898       .  S
C244        O254   1.259       .  A
C244        O245   1.267       .  A
C244        C944   1.503       .  S
O245       Al247   1.947       .  S
O246        C248   1.252       .  A
O246       Al247   1.854       .  S
Al247       O255   1.875       .  S
Al247       O257   1.935       .  S
Al247       O256   1.783       .  S
C248        O261   1.270       .  A
C248        C468   1.486       .  S
O249        C259   1.268       .  A
O249       Al251   1.929       .  S
O250        C263   1.268       .  A
O250       Al260   1.914   1_565  S
Al251       O264   1.922       .  S
Al251       O261   1.953       .  S
Al251       O256   1.775       .  S
O252        C259   1.258       .  A
O252       Al260   1.903       .  S
O253        C262   1.264       .  A
O253       Al260   1.930       .  S
O254       Al260   1.898       .  S
O255        C262   1.256       .  A
O256       Al260   1.781       .  S
O257        C258   1.266       .  A
C258        C871   1.513       .  S
C259        C426   1.499   1_545  S
C262        C510   1.483       .  S
C263        O264   1.267   1_565  A
C263        C412   1.490       .  S
O265        C280   1.268       .  A
O265       Al273   1.915       .  S
C266        O276   1.259       .  A
C266        O267   1.264       .  A
C266        C496   1.513       .  S
O267       Al269   1.928       .  S
O268        C270   1.257       .  A
O268       Al269   1.882       .  S
Al269       O277   1.881       .  S
Al269       O279   1.902       .  S
Al269       O278   1.784       .  S
C270        O283   1.257       .  A
C270        C395   1.481       .  S
O271        C281   1.264       .  A
O271       Al273   1.934       .  S
O272        C285   1.265       .  A
O272       Al282   1.922       .  S
Al273       O286   1.918       .  S
Al273       O283   1.900       .  S
Al273       O278   1.791       .  S
O274        C281   1.263       .  A
O274       Al282   1.888       .  S
O275        C284   1.257       .  A
O275       Al282   1.910       .  S
O276       Al282   1.885       .  S
O277        C284   1.255       .  A
O278       Al282   1.782       .  S
O279        C280   1.262       .  A
C280        C538   1.499       .  S
C281        C661   1.501       .  S
C284        C381   1.479       .  S
C285        O286   1.264       .  A
C285        C734   1.513       .  S
O287        C302   1.265       .  A
O287       Al295   1.918   1_655  S
C288        O298   1.258       .  A
C288        O289   1.261       .  A
C288        C524   1.516       .  S
O289       Al291   1.915       .  S
O290        C292   1.261       .  A
O290       Al291   1.917   1_655  S
Al291       O299   1.953       .  S
Al291       O301   1.919   1_455  S
Al291       O300   1.787       .  S
C292        O305   1.261   1_655  A
C292        C720   1.502       .  S
O293        C303   1.266       .  A
O293       Al295   1.920       .  S
O294        C307   1.256       .  A
O294       Al304   1.902       .  S
Al295       O308   1.922       .  S
Al295       O305   1.922       .  S
Al295       O300   1.793       .  S
O296        C303   1.263       .  A
O296       Al304   1.882       .  S
O297        C306   1.264       .  A
O297       Al304   1.893       .  S
O298       Al304   1.926       .  S
O299        C306   1.271       .  A
O300       Al304   1.792       .  S
O301        C302   1.266       .  A
C302        C678   1.500       .  S
C303        C398   1.479       .  S
C306        C370   1.506       .  S
C307        O308   1.262       .  A
C307        C479   1.520       .  S
O309        C324   1.270       .  A
O309       Al317   1.937       .  S
C310        O320   1.263       .  A
C310        O311   1.263       .  A
C310        C423   1.513       .  S
O311       Al313   1.897       .  S
O312        C314   1.262       .  A
O312       Al313   1.921       .  S
Al313       O321   1.928       .  S
Al313       O323   1.915       .  S
Al313       O322   1.774       .  S
C314        O327   1.264       .  A
C314        C577   1.493       .  S
O315        C325   1.268       .  A
O315       Al317   1.931       .  S
O316        C329   1.263       .  A
O316       Al326   1.931       .  S
Al317       O330   1.903       .  S
Al317       O327   1.927       .  S
Al317       O322   1.769       .  S
O318        C325   1.258       .  A
O318       Al326   1.879       .  S
O319        C328   1.259       .  A
O319       Al326   1.874       .  S
O320       Al326   1.930       .  S
O321        C328   1.265       .  A
O322       Al326   1.783       .  S
O323        C324   1.266       .  A
C324        C633   1.508       .  S
C325        C353   1.486       .  S
C328        C384   1.480       .  S
C329        O330   1.262       .  A
C329        C451   1.502       .  S
O331        C346   1.264       .  A
O331       Al339   1.912       .  S
C332        O342   1.265       .  A
C332        O333   1.263       .  A
C332        C440   1.526       .  S
O333       Al335   1.931       .  S
O334        C336   1.257       .  A
O334       Al335   1.882       .  S
Al335       O343   1.877       .  S
Al335       O345   1.926       .  S
Al335       O344   1.787       .  S
C336        O349   1.266       .  A
C336        C356   1.486       .  S
O337        C347   1.262   1_455  A
O337       Al339   1.917       .  S
O338        C351   1.270       .  A
O338       Al348   1.940   1_655  S
Al339       O352   1.921   1_455  S
Al339       O349   1.920       .  S
Al339       O344   1.781       .  S
O340        C347   1.266       .  A
O340       Al348   1.937   1_655  S
O341        C350   1.271       .  A
O341       Al348   1.965       .  S
O342       Al348   1.927       .  S
O343        C350   1.258       .  A
O344       Al348   1.781       .  S
O345        C346   1.264       .  A
C346        C409   1.508       .  S
C347        C619   1.498       .  S
C350        C367   1.502       .  S
C351        O352   1.265       .  A
C351        C594   1.530       .  S
C353        C354   1.411       .  A
C353        C358   1.422       .  A
C354        C355   1.408       .  A
C354        C359   1.453       .  S
C355        C356   1.418       .  A
C355        C362   1.449       .  S
C356        C357   1.410       .  A
C357        C358   1.408       .  A
C357        C360   1.454       .  S
C358        C361   1.452       .  S
C359        N366   1.157       .  T
C360        N365   1.158       .  T
C361        N363   1.157       .  T
C362        N364   1.157       .  T
C367        C368   1.415       .  A
C367        C372   1.415       .  A
C368        C369   1.412       .  A
C368        C373   1.452       .  S
C369        C370   1.417       .  A
C369        C376   1.453       .  S
C370        C371   1.420       .  A
C371        C372   1.423       .  A
C371        C374   1.450       .  S
C372        C375   1.450       .  S
C373        N380   1.157       .  T
C374        N379   1.157       .  T
C375        N377   1.157       .  T
C376        N378   1.157       .  T
C381        C382   1.411       .  A
C381        C386   1.411       .  A
C382        C383   1.413   1_556  A
C382        C387   1.450       .  S
C383        C384   1.415       .  A
C383        C390   1.451       .  S
C384        C385   1.412       .  A
C385        C386   1.405   1_554  A
C385        C388   1.454       .  S
C386        C389   1.449       .  S
C387        N394   1.157       .  T
C388        N393   1.158       .  T
C389        N391   1.156       .  T
C390        N392   1.157       .  T
C395        C396   1.410       .  A
C395        C400   1.418       .  A
C396        C397   1.407       .  A
C396        C401   1.451       .  S
C397        C398   1.414       .  A
C397        C404   1.449       .  S
C398        C399   1.406       .  A
C399        C400   1.405       .  A
C399        C402   1.450       .  S
C400        C403   1.451       .  S
C401        N408   1.156       .  T
C402        N407   1.156       .  T
C403        N405   1.157       .  T
C404        N406   1.156       .  T
C409        C410   1.417       .  A
C409        C414   1.423       .  A
C410        C411   1.416       .  A
C410        C415   1.450       .  S
C411        C412   1.413       .  A
C411        C418   1.449       .  S
C412        C413   1.408       .  A
C413        C414   1.413       .  A
C413        C416   1.452       .  S
C414        C417   1.446       .  S
C415        N422   1.157       .  T
C416        N421   1.157       .  T
C417        N419   1.156       .  T
C418        N420   1.157   1_565  T
C423        C424   1.416       .  A
C423        C428   1.425       .  A
C424        C425   1.412       .  A
C424        C429   1.454       .  S
C425        C426   1.419       .  A
C425        C432   1.449   1_565  S
C426        C427   1.411       .  A
C427        C428   1.420       .  A
C427        C430   1.451       .  S
C428        C431   1.449       .  S
C429        N436   1.157       .  T
C430        N435   1.157       .  T
C431        N433   1.157       .  T
C432        N434   1.157       .  T
C437        C438   1.413       .  A
C437        C442   1.418       .  A
C438        C439   1.423       .  A
C438        C443   1.451       .  S
C439        C440   1.425       .  A
C439        C446   1.448       .  S
C440        C441   1.418       .  A
C441        C442   1.421       .  A
C441        C444   1.452       .  S
C442        C445   1.450       .  S
C443        N450   1.157       .  T
C444        N449   1.158   1_455  T
C445        N447   1.157       .  T
C446        N448   1.157       .  T
C451        C452   1.415       .  A
C451        C456   1.421       .  A
C452        C453   1.402       .  A
C452        C457   1.453       .  S
C453        C454   1.420       .  A
C453        C460   1.451       .  S
C454        C455   1.419       .  A
C455        C456   1.423       .  A
C455        C458   1.449       .  S
C456        C459   1.450       .  S
C457        N464   1.158       .  T
C458        N463   1.157       .  T
C459        N461   1.157       .  T
C460        N462   1.156       .  T
C465        C466   1.409       .  A
C465        C470   1.426       .  A
C466        C467   1.407       .  A
C466        C471   1.453       .  S
C467        C468   1.423       .  A
C467        C474   1.454       .  S
C468        C469   1.407       .  A
C469        C470   1.410       .  A
C469        C472   1.452       .  S
C470        C473   1.453       .  S
C471        N478   1.158       .  T
C472        N477   1.158       .  T
C473        N475   1.157       .  T
C474        N476   1.157       .  T
C479        C480   1.429       .  A
C479        C484   1.421       .  A
C480        C481   1.419       .  A
C480        C485   1.452       .  S
C481        C482   1.413       .  A
C481        C488   1.452       .  S
C482        C483   1.419       .  A
C483        C484   1.417       .  A
C483        C486   1.450   1_565  S
C484        C487   1.452       .  S
C485        N492   1.158       .  T
C486        N491   1.157       .  T
C487        N489   1.158       .  T
C488        N490   1.157       .  T
C493        C494   1.416   1_545  A
C493        C498   1.417       .  A
C494        C495   1.411       .  A
C494        C499   1.448   1_565  S
C495        C496   1.420       .  A
C495        C502   1.453       .  S
C496        C497   1.421       .  A
C497        C498   1.422   1_565  A
C497        C500   1.450       .  S
C498        C501   1.450       .  S
C499        N506   1.155       .  T
C500        N505   1.157       .  T
C501        N503   1.157       .  T
C502        N504   1.157       .  T
C507        C508   1.412       .  A
C507        C512   1.414       .  A
C508        C509   1.407       .  A
C508        C513   1.453       .  S
C509        C510   1.414       .  A
C509        C516   1.453       .  S
C510        C511   1.413       .  A
C511        C512   1.412       .  A
C511        C514   1.450       .  S
C512        C515   1.451       .  S
C513        N520   1.157       .  T
C514        N519   1.157       .  T
C515        N517   1.157       .  T
C516        N518   1.157       .  T
C521        C522   1.417       .  A
C521        C526   1.413       .  A
C522        C523   1.415       .  A
C522        C527   1.448       .  S
C523        C524   1.414       .  A
C523        C530   1.453       .  S
C524        C525   1.426       .  A
C525        C526   1.423       .  A
C525        C528   1.450       .  S
C526        C529   1.451       .  S
C527        N534   1.157       .  T
C528        N533   1.158       .  T
C529        N531   1.157       .  T
C530        N532   1.157       .  T
C535        C536   1.412       .  A
C535        C540   1.408       .  A
C536        C537   1.411       .  A
C536        C541   1.450       .  S
C537        C538   1.414       .  A
C537        C544   1.450       .  S
C538        C539   1.426       .  A
C539        C540   1.412       .  A
C539        C542   1.452       .  S
C540        C543   1.452       .  S
C541        N548   1.157       .  T
C542        N547   1.158       .  T
C543        N545   1.157       .  T
C544        N546   1.157       .  T
C549        C550   1.413       .  A
C549        C554   1.416       .  A
C550        C551   1.417   1_556  A
C550        C555   1.449       .  S
C551        C552   1.414       .  A
C551        C558   1.449       .  S
C552        C553   1.414       .  A
C553        C554   1.413   1_554  A
C553        C556   1.452       .  S
C554        C557   1.452       .  S
C555        N562   1.157       .  T
C556        N561   1.158       .  T
C557        N559   1.157       .  T
C558        N560   1.157       .  T
C563        C564   1.422       .  A
C563        C568   1.405       .  A
C564        C565   1.406       .  A
C564        C569   1.451       .  S
C565        C566   1.403       .  A
C565        C572   1.453       .  S
C566        C567   1.420       .  A
C567        C568   1.406       .  A
C567        C570   1.452       .  S
C568        C571   1.451       .  S
C569        N576   1.157       .  T
C570        N575   1.157       .  T
C571        N573   1.157       .  T
C572        N574   1.157       .  T
C577        C578   1.412       .  A
C577        C582   1.407       .  A
C578        C579   1.422       .  A
C578        C583   1.448       .  S
C579        C580   1.417       .  A
C579        C586   1.449       .  S
C580        C581   1.421       .  A
C581        C582   1.414       .  A
C581        C584   1.444       .  S
C582        C585   1.452       .  S
C583        N590   1.157       .  T
C584        N589   1.156       .  T
C585        N587   1.157       .  T
C586        N588   1.157       .  T
C591        C592   1.422       .  A
C591        C596   1.420       .  A
C592        C593   1.425       .  A
C592        C597   1.451       .  S
C593        C594   1.423       .  A
C593        C600   1.451       .  S
C594        C595   1.428       .  A
C595        C596   1.420       .  A
C595        C598   1.453       .  S
C596        C599   1.453       .  S
C597        N604   1.158       .  T
C598        N603   1.158       .  T
C599        N601   1.158       .  T
C600        N602   1.158       .  T
C605        C606   1.399       .  A
C605        C610   1.414       .  A
C606        C607   1.402       .  A
C606        C611   1.456       .  S
C607        C608   1.435       .  A
C607        C614   1.452       .  S
C608        C609   1.413       .  A
C609        C610   1.402       .  A
C609        C612   1.450       .  S
C610        C613   1.453       .  S
C611        N618   1.158       .  T
C612        N617   1.157       .  T
C613        N615   1.157       .  T
C614        N616   1.157       .  T
C619        C620   1.407       .  A
C619        C624   1.406       .  A
C620        C621   1.419       .  A
C620        C625   1.443   1_655  S
C621        C622   1.423       .  A
C621        C628   1.449       .  S
C622        C623   1.426       .  A
C623        C624   1.417       .  A
C623        C626   1.447       .  S
C624        C627   1.450       .  S
C625        N632   1.155       .  T
C626        N631   1.156       .  T
C627        N629   1.157       .  T
C628        N630   1.158       .  T
C633        C634   1.417       .  A
C633        C638   1.419       .  A
C634        C635   1.414       .  A
C634        C639   1.447       .  S
C635        C636   1.410       .  A
C635        C642   1.449       .  S
C636        C637   1.415       .  A
C637        C638   1.420       .  A
C637        C640   1.448       .  S
C638        C641   1.450       .  S
C639        N646   1.156       .  T
C640        N645   1.157       .  T
C641        N643   1.157       .  T
C642        N644   1.156       .  T
C647        C648   1.413       .  A
C647        C652   1.413       .  A
C648        C649   1.410       .  A
C648        C653   1.451       .  S
C649        C650   1.410       .  A
C649        C656   1.451       .  S
C650        C651   1.409       .  A
C651        C652   1.412       .  A
C651        C654   1.451   1_565  S
C652        C655   1.448   1_565  S
C653        N660   1.157       .  T
C654        N659   1.157       .  T
C655        N657   1.156       .  T
C656        N658   1.157       .  T
C661        C662   1.409       .  A
C661        C666   1.420       .  A
C662        C663   1.401       .  A
C662        C667   1.459       .  S
C663        C664   1.415       .  A
C663        C670   1.441       .  S
C664        C665   1.416       .  A
C665        C666   1.430       .  A
C665        C668   1.447       .  S
C666        C669   1.448       .  S
C667        N674   1.157       .  T
C668        N673   1.157       .  T
C669        N671   1.157       .  T
C670        N672   1.155       .  T
C675        C676   1.424       .  A
C675        C680   1.413       .  A
C676        C677   1.416       .  A
C676        C681   1.451       .  S
C677        C678   1.411       .  A
C677        C684   1.451       .  S
C678        C679   1.414       .  A
C679        C680   1.420       .  A
C679        C682   1.448       .  S
C680        C683   1.447       .  S
C681        N688   1.157       .  T
C682        N687   1.157       .  T
C683        N685   1.157       .  T
C684        N686   1.157       .  T
C689        C690   1.411       .  A
C689        C694   1.412       .  A
C690        C691   1.411   1_554  A
C690        C695   1.451       .  S
C691        C692   1.412       .  A
C691        C698   1.451       .  S
C692        C693   1.411       .  A
C693        C694   1.409   1_556  A
C693        C696   1.451       .  S
C694        C697   1.451       .  S
C695        N702   1.157       .  T
C696        N701   1.157       .  T
C697        N699   1.157       .  T
C698        N700   1.157       .  T
C703        C704   1.397       .  A
C703        C708   1.401       .  A
C704        C705   1.402       .  A
C704        C709   1.446       .  S
C705        C706   1.421       .  A
C705        C712   1.452       .  S
C706        C707   1.426       .  A
C707        C708   1.401       .  A
C707        C710   1.450       .  S
C708        C711   1.453       .  S
C709        N716   1.155       .  T
C710        N715   1.157       .  T
C711        N713   1.157       .  T
C712        N714   1.158       .  T
C717        C718   1.427       .  A
C717        C722   1.419       .  A
C718        C719   1.420       .  A
C718        C723   1.451       .  S
C719        C720   1.408       .  A
C719        C726   1.450       .  S
C720        C721   1.410       .  A
C721        C722   1.419       .  A
C721        C724   1.443   1_655  S
C722        C725   1.450       .  S
C723        N730   1.157       .  T
C724        N729   1.155       .  T
C725        N727   1.158       .  T
C726        N728   1.157       .  T
C731        C732   1.417       .  A
C731        C736   1.414       .  A
C732        C733   1.421       .  A
C732        C737   1.451       .  S
C733        C734   1.422       .  A
C733        C740   1.451       .  S
C734        C735   1.423       .  A
C735        C736   1.412       .  A
C735        C738   1.452       .  S
C736        C739   1.454       .  S
C737        N744   1.158       .  T
C738        N743   1.158       .  T
C739        N741   1.157       .  T
C740        N742   1.158       .  T
C745        C746   1.417       .  A
C745        C750   1.413       .  A
C746        C747   1.407       .  A
C746        C751   1.455       .  S
C747        C748   1.418       .  A
C747        C754   1.454       .  S
C748        C749   1.417       .  A
C749        C750   1.420       .  A
C749        C752   1.450       .  S
C750        C753   1.448       .  S
C751        N758   1.157       .  T
C752        N757   1.157       .  T
C753        N755   1.157       .  T
C754        N756   1.158       .  T
C759        C760   1.412       .  A
C759        C764   1.420   1_455  A
C760        C761   1.406       .  A
C760        C765   1.456       .  S
C761        C762   1.414       .  A
C761        C768   1.444       .  S
C762        C763   1.413       .  A
C763        C764   1.426   1_455  A
C763        C766   1.447       .  S
C764        C767   1.446       .  S
C765        N772   1.157       .  T
C766        N771   1.157       .  T
C767        N769   1.157       .  T
C768        N770   1.154       .  T
C773        C774   1.412       .  A
C773        C778   1.414       .  A
C774        C775   1.406       .  A
C774        C779   1.441       .  S
C775        C776   1.411       .  A
C775        C782   1.456       .  S
C776        C777   1.418       .  A
C777        C778   1.427       .  A
C777        C780   1.448       .  S
C778        C781   1.448       .  S
C779        N786   1.153       .  T
C780        N785   1.157       .  T
C781        N783   1.157       .  T
C782        N784   1.157       .  T
C787        C788   1.419       .  A
C787        C792   1.423       .  A
C788        C789   1.418       .  A
C788        C793   1.452       .  S
C789        C790   1.416       .  A
C789        C796   1.451       .  S
C790        C791   1.411       .  A
C791        C792   1.413       .  A
C791        C794   1.454       .  S
C792        C795   1.451       .  S
C793        N800   1.157       .  T
C794        N799   1.157       .  T
C795        N797   1.157   1_545  T
C796        N798   1.157       .  T
C801        C802   1.412       .  A
C801        C806   1.408       .  A
C802        C803   1.421       .  A
C802        C807   1.447       .  S
C803        C804   1.415       .  A
C803        C810   1.447       .  S
C804        C805   1.418       .  A
C805        C806   1.412       .  A
C805        C808   1.446       .  S
C806        C809   1.451       .  S
C807        N814   1.157       .  T
C808        N813   1.157       .  T
C809        N811   1.157       .  T
C810        N812   1.158       .  T
C815        C816   1.420       .  A
C815        C820   1.423       .  A
C816        C817   1.418       .  A
C816        C821   1.450       .  S
C817        C818   1.417       .  A
C817        C824   1.451       .  S
C818        C819   1.418       .  A
C819        C820   1.411       .  A
C819        C822   1.454       .  S
C820        C823   1.452       .  S
C821        N828   1.157       .  T
C822        N827   1.158       .  T
C823        N825   1.157       .  T
C824        N826   1.157       .  T
C829        C830   1.410       .  A
C829        C834   1.426       .  A
C830        C831   1.396       .  A
C830        C835   1.454       .  S
C831        C832   1.419       .  A
C831        C838   1.455       .  S
C832        C833   1.406       .  A
C833        C834   1.407       .  A
C833        C836   1.452       .  S
C834        C837   1.450       .  S
C835        N842   1.158       .  T
C836        N841   1.158       .  T
C837        N839   1.157       .  T
C838        N840   1.157       .  T
C843        C844   1.424       .  A
C843        C848   1.420       .  A
C844        C845   1.428       .  A
C844        C849   1.447       .  S
C845        C846   1.414       .  A
C845        C852   1.449       .  S
C846        C847   1.421       .  A
C847        C848   1.418       .  A
C847        C850   1.449       .  S
C848        C851   1.455       .  S
C849        N856   1.157       .  T
C850        N855   1.157   1_545  T
C851        N853   1.158       .  T
C852        N854   1.157       .  T
C857        C858   1.414       .  A
C857        C862   1.414       .  A
C858        C859   1.422       .  A
C858        C863   1.448       .  S
C859        C860   1.416       .  A
C859        C866   1.449       .  S
C860        C861   1.420       .  A
C861        C862   1.409       .  A
C861        C864   1.452       .  S
C862        C865   1.455       .  S
C863        N870   1.157       .  T
C864        N869   1.157       .  T
C865        N867   1.158       .  T
C866        N868   1.157       .  T
C871        C872   1.421       .  A
C871        C876   1.422       .  A
C872        C873   1.420       .  A
C872        C877   1.452       .  S
C873        C874   1.419       .  A
C873        C880   1.448       .  S
C874        C875   1.422       .  A
C875        C876   1.413       .  A
C875        C878   1.454   1_455  S
C876        C879   1.453       .  S
C877        N884   1.158       .  T
C878        N883   1.158       .  T
C879        N881   1.158       .  T
C880        N882   1.156       .  T
C885        C886   1.406       .  A
C885        C890   1.422   1_455  A
C886        C887   1.401       .  A
C886        C891   1.458       .  S
C887        C888   1.416       .  A
C887        C894   1.437       .  S
C888        C889   1.417       .  A
C889        C890   1.433   1_455  A
C889        C892   1.447       .  S
C890        C893   1.445       .  S
C891        N898   1.157       .  T
C892        N897   1.157   1_455  T
C893        N895   1.158       .  T
C894        N896   1.154       .  T
C899        C900   1.421       .  A
C899        C904   1.425       .  A
C900        C901   1.420       .  A
C900        C905   1.451       .  S
C901        C902   1.417       .  A
C901        C908   1.449       .  S
C902        C903   1.422       .  A
C903        C904   1.409       .  A
C903        C906   1.457       .  S
C904        C907   1.455       .  S
C905        N912   1.157   1_655  T
C906        N911   1.158       .  T
C907        N909   1.158       .  T
C908        N910   1.157   1_655  T
C913        C914   1.418       .  A
C913        C918   1.415       .  A
C914        C915   1.427       .  A
C914        C919   1.444       .  S
C915        C916   1.414       .  A
C915        C922   1.448       .  S
C916        C917   1.410       .  A
C917        C918   1.406       .  A
C917        C920   1.441       .  S
C918        C921   1.455       .  S
C919        N926   1.156       .  T
C920        N925   1.152       .  T
C921        N923   1.157       .  T
C922        N924   1.157       .  T
C927        C928   1.409       .  A
C927        C932   1.414       .  A
C928        C929   1.415       .  A
C928        C933   1.451       .  S
C929        C930   1.425       .  A
C929        C936   1.451       .  S
C930        C931   1.412       .  A
C931        C932   1.414       .  A
C931        C934   1.450       .  S
C932        C935   1.449       .  S
C933        N940   1.157       .  T
C934        N939   1.157       .  T
C935        N937   1.157       .  T
C936        N938   1.158       .  T
C941        C942   1.407       .  A
C941        C946   1.416       .  A
C942        C943   1.407       .  A
C942        C947   1.456       .  S
C943        C944   1.418       .  A
C943        C950   1.444       .  S
C944        C945   1.415       .  A
C945        C946   1.426       .  A
C945        C948   1.447       .  S
C946        C949   1.448       .  S
C947        N954   1.157       .  T
C948        N953   1.157       .  T
C949        N951   1.157       .  T
C950        N952   1.155       .  T
C955        C956   1.416       .  A
C955        C960   1.415       .  A
C956        C957   1.408       .  A
C956        C961   1.455       .  S
C957        C958   1.420       .  A
C957        C964   1.453       .  S
C958        C959   1.418       .  A
C959        C960   1.421       .  A
C959        C962   1.450       .  S
C960        C963   1.449       .  S
C961        N968   1.157       .  T
C962        N967   1.157       .  T
C963        N965   1.157       .  T
C964        N966   1.158       .  T
C969        C970   1.412       .  A
C969        C974   1.411       .  A
C970        C971   1.415   1_556  A
C970        C975   1.451       .  S
C971        C972   1.415       .  A
C971        C978   1.451       .  S
C972        C973   1.412       .  A
C973        C974   1.414   1_554  A
C973        C976   1.450       .  S
C974        C977   1.450       .  S
C975        N982   1.157       .  T
C976        N981   1.157       .  T
C977        N979   1.157       .  T
C978        N980   1.157       .  T
C983        C984   1.397       .  A
C983        C988   1.401       .  A
C984        C985   1.402       .  A
C984        C989   1.449       .  S
C985        C986   1.424       .  A
C985        C992   1.452       .  S
C986        C987   1.424       .  A
C987        C988   1.402       .  A
C987        C990   1.452       .  S
C988        C991   1.453       .  S
C989        N996   1.156       .  T
C990        N995   1.157       .  T
C991        N993   1.157       .  T
C992        N994   1.158       .  T
C997        C998   1.419       .  A
C997       C1002   1.425       .  A
C998        C999   1.419       .  A
C998       C1003   1.451       .  S
C999       C1000   1.417       .  A
C999       C1006   1.447       .  S
C1000      C1001   1.415       .  A
C1001      C1002   1.426       .  A
C1001      C1004   1.450       .  S
C1002      C1005   1.450       .  S
C1003      N1010   1.158       .  T
C1004      N1009   1.157       .  T
C1005      N1007   1.157       .  T
C1006      N1008   1.155   1_545  T
C1011      C1012   1.419       .  A
C1011      C1016   1.414       .  A
C1012      C1013   1.426       .  A
C1012      C1017   1.449       .  S
C1013      C1014   1.423       .  A
C1013      C1020   1.450       .  S
C1014      C1015   1.423       .  A
C1015      C1016   1.408       .  A
C1015      C1018   1.453       .  S
C1016      C1019   1.454       .  S
C1017      N1024   1.157       .  T
C1018      N1023   1.158       .  T
C1019      N1021   1.157       .  T
C1020      N1022   1.158       .  T
