geometry optimzed in LAMMPS
_audit_creation_date              2020-12-01 
_audit_creation_method            'lammps2cif' 
_symmetry_space_group_name_H-M    'P1' 
_symmetry_Int_Tables_number       1 
_symmetry_cell_setting            triclinic 
loop_ 
_symmetry_equiv_pos_as_xyz 
  x,y,z 
_cell_length_a                    30.85316868 
_cell_length_b                    30.81800566042175 
_cell_length_c                    55.81984441230879 
_cell_angle_alpha                 89.9745753220654 
_cell_angle_beta                  90.02342533557135 
_cell_angle_gamma                 120.06558517362237 
loop_ 
_atom_site_label 
_atom_site_type_symbol 
_atom_site_fract_x 
_atom_site_fract_y 
_atom_site_fract_z 
_atom_site_charge 
Zr1        Zr  0.75440704  0.85231053  0.40801575     2.17500
O2          O  0.79612315  0.91025699  0.44106420    -0.52500
O3          O  0.82186209  0.83654820  0.39927448    -0.75700
O4          O  0.75187472  0.80732254  0.44452163    -0.82400
O5          O  0.79583770  0.95772682  0.36307714    -0.84200
O6          O  0.67569221  0.73647010  0.44666256    -0.79800
O7          O  0.81915608  0.93688609  0.39787337    -0.91400
O8          O  0.79708618  0.78070929  0.36868077    -0.77400
O9          O  0.70960441  0.76506893  0.39908787    -0.86900
O10         O  0.75744569  0.84643617  0.36549093    -0.86600
O11         O  0.67174389  0.82224818  0.42345996    -0.73300
O12         O  0.71669107  0.89729796  0.39151655    -0.85500
Zr13       Zr  0.58923030  0.77336947  0.35429846     2.26400
Zr14       Zr  0.62589898  0.73535869  0.41267504     2.06300
Zr15       Zr  0.71717189  0.88873638  0.34895473     2.10000
Zr16       Zr  0.71261032  0.75923618  0.35690590     1.78800
O17         O  0.70095391  0.95706223  0.34108784    -0.94300
O18         O  0.70153072  0.67829202  0.36901809    -0.42100
O19         O  0.67247885  0.80146889  0.34019060    -0.78700
O20         O  0.62754227  0.72715696  0.36993348    -0.97400
O21         O  0.58669919  0.77921398  0.39673849    -0.90700
O22         O  0.63424275  0.86066441  0.36331996    -0.93600
C23         C  0.82948585  0.80981243  0.38416334     1.00200
C24         C  0.82590612  0.96755052  0.38075944     1.13100
C25         C  0.71989225  0.76617805  0.45479108     1.03900
O26         O  0.61452344  0.65170006  0.41746261    -0.95700
O27         O  0.54241242  0.66979158  0.40191801    -0.91500
O28         O  0.52591358  0.68879188  0.36502036    -0.84600
C29         C  0.51471483  0.65992587  0.38327037     1.10500
O30         O  0.67586332  0.93029471  0.43658464    -0.97700
Zr31       Zr  0.63373792  0.86602249  0.40611137     1.88900
O32         O  0.52824582  0.80076331  0.36235275    -0.74300
O33         O  0.57653461  0.72899698  0.44793476    -0.53600
O34         O  0.58796890  0.84077599  0.44383972    -0.98300
O35         O  0.63932859  0.94579920  0.39645197    -0.55500
O36         O  0.54983616  0.84500677  0.39695115    -0.74900
C37         C  0.51987620  0.82352475  0.37951306     0.97500
O38         O  0.52714093  0.73099438  0.32275228    -0.63700
O39         O  0.77938849  0.92239113  0.31696004    -0.58500
O40         O  0.60639278  0.79413965  0.31166966    -0.95200
O41         O  0.68323162  0.86356570  0.30872428    -0.93600
O42         O  0.76176180  0.78405356  0.32017735    -0.93900
O43         O  0.67843591  0.69906253  0.32420380    -0.92700
C44         C  0.64309699  0.82785520  0.29934673     1.16300
H45         H  0.79146041  0.86203541  0.35967626     0.32300
H46         H  0.60881414  0.69230920  0.36527870     0.43100
H47         H  0.61938619  0.87817538  0.35563928     0.36700
H48         H  0.67281490  0.82593080  0.44067480     0.33100
H49         H  0.72585590  0.68600069  0.38217821     0.24900
H50         H  0.54403220  0.72296095  0.44153931     0.30900
H51         H  0.57239419  0.86200466  0.44531016     0.36800
H52         H  0.76526329  0.81687453  0.31596452     0.31200
H53         H  0.78989620  0.95841768  0.31587325     0.30100
H54         H  0.73454436  0.98737405  0.34002748     0.31800
H55         H  0.61322973  0.93797506  0.38419200     0.30800
H56         H  0.65115869  0.70351141  0.31754120     0.34800
H57         H  0.52661319  0.69910297  0.31959401     0.27500
H58         H  0.82089826  0.90168000  0.44738272     0.31700
H59         H  0.71108831  0.93795370  0.43617634     0.34600
H60         H  0.80907712  0.92173442  0.32323510     0.27200
H61         H  0.49423331  0.72099443  0.33010346     0.40000
H62         H  0.59306067  0.63778526  0.43182381     0.30100
H63         H  0.66842862  0.66087618  0.37697424     0.37700
H64         H  0.67134518  0.96480031  0.38766453     0.29600
H65         H  0.56876250  0.69684153  0.45551758     0.29600
H66         H  0.77045177  0.89994232  0.45378381     0.29900
Zr67       Zr  0.86562734  0.74066113  0.58870349     2.17500
O68         O  0.92234061  0.78797851  0.55607567    -0.52500
O69         O  0.85176571  0.80907150  0.59825852    -0.75700
O70         O  0.81964895  0.73851723  0.55267251    -0.82400
O71         O  0.97349846  0.77852012  0.63248067    -0.84200
O72         O  0.74774958  0.66311881  0.55084744    -0.79800
O73         O  0.95278325  0.80107477  0.59742062    -0.91400
O74         O  0.79544634  0.78410956  0.62859203    -0.77400
O75         O  0.77856196  0.69614243  0.59788807    -0.86900
O76         O  0.86072291  0.74383856  0.63123987    -0.86600
O77         O  0.83401840  0.65772506  0.57298595    -0.73300
O78         O  0.90988051  0.70198546  0.60477456    -0.85500
Zr79       Zr  0.78627264  0.57515367  0.64202020     2.26400
Zr80       Zr  0.74724699  0.61213886  0.58415799     2.06300
Zr81       Zr  0.90231140  0.70236597  0.64747059     2.10000
Zr82       Zr  0.77345102  0.69937442  0.64003308     1.78800
O83         O  0.96787399  0.68267175  0.65634409    -0.94300
O84         O  0.69438822  0.69432241  0.62945861    -0.42100
O85         O  0.81540549  0.65855730  0.65580089    -0.78700
O86         O  0.74009318  0.61398794  0.62685592    -0.97400
O87         O  0.79109724  0.57251838  0.59950084    -0.90700
O88         O  0.87334978  0.61924983  0.63277546    -0.93600
C89         C  0.82489302  0.81663834  0.61327079     1.00200
C90         C  0.98388568  0.80747268  0.61426372     1.13100
C91         C  0.77774890  0.70732887  0.54277332     1.03900
O92         O  0.66471991  0.60352065  0.58007795    -0.95700
O93         O  0.68151195  0.52830806  0.59554966    -0.91500
O94         O  0.70160492  0.51200055  0.63226277    -0.84600
C95         C  0.67227323  0.50060784  0.61424142     1.10500
O96         O  0.93485752  0.65891698  0.55633518    -0.97700
Zr97       Zr  0.87776971  0.61919962  0.58980557     1.88900
O98         O  0.81209899  0.51317934  0.63357866    -0.74300
O99         O  0.73898959  0.56354236  0.54829990    -0.53600
O100        O  0.85320457  0.56987180  0.55306352    -0.98300
O101        O  0.96108763  0.63210189  0.59774181    -0.55500
O102        O  0.85866942  0.53605258  0.59967843    -0.74900
C103        C  0.83554808  0.50524659  0.61663348     0.97500
O104        O  0.74822739  0.51387920  0.67431273    -0.63700
O105        O  0.93686296  0.76541048  0.67908049    -0.58500
O106        O  0.80403372  0.59357280  0.68475963    -0.95200
O107        O  0.87263777  0.67098629  0.68799546    -0.93600
O108        O  0.79919449  0.74666487  0.67732652    -0.93900
O109        O  0.71182134  0.65991501  0.67181197    -0.92700
C110        C  0.83611631  0.63106643  0.69723662     1.16300
H111        H  0.87687282  0.77793103  0.63702435     0.32300
H112        H  0.70539174  0.59551274  0.63170367     0.43100
H113        H  0.89041877  0.60376236  0.64028520     0.36700
H114        H  0.83729680  0.65886402  0.55574543     0.33100
H115        H  0.69508103  0.72299174  0.63783187     0.24900
H116        H  0.73216738  0.53047555  0.55431498     0.30900
H117        H  0.87570469  0.55567699  0.55198612     0.36800
H118        H  0.83613963  0.76260755  0.67758502     0.31200
H119        H  0.97328318  0.77768645  0.67929138     0.30100
H120        H  0.99498601  0.71346858  0.66383534     0.31800
H121        H  0.96341157  0.60697600  0.58761030     0.30800
H122        H  0.71998936  0.63565080  0.67919569     0.34800
H123        H  0.71516957  0.51074388  0.67743913     0.27500
H124        H  0.91408058  0.81424140  0.55188570     0.31700
H125        H  0.93805614  0.69243246  0.55496234     0.34600
H126        H  0.93393470  0.79402785  0.67301774     0.27200
H127        H  0.74042476  0.48124569  0.66729954     0.40000
H128        H  0.65459573  0.60572633  0.59665742     0.30100
H129        H  0.69770558  0.70349665  0.61228399     0.37700
H130        H  0.95972760  0.62010857  0.61431931     0.29600
H131        H  0.70700275  0.55692473  0.54098211     0.29600
H132        H  0.91125444  0.76502762  0.54214234     0.29900
Zr133      Zr  0.14391060  0.87830286  0.40805770     2.17500
O134        O  0.08807927  0.86451250  0.44173787    -0.52500
O135        O  0.16076465  0.96169441  0.39881553    -0.75700
O136        O  0.19002892  0.92343355  0.44382812    -0.82400
O137        O  0.03695616  0.81230475  0.36429520    -0.84200
O138        O  0.26175494  0.91987786  0.44548178    -0.79800
O139        O  0.05895435  0.85822944  0.39855463    -0.91400
O140        O  0.21699935  0.99247165  0.36838965    -0.77400
O141        O  0.23084443  0.91999327  0.39858962    -0.86900
O142        O  0.14861259  0.88611762  0.36546680    -0.86600
O143        O  0.17360019  0.82544896  0.42374509    -0.73300
O144        O  0.09806420  0.79513919  0.39206072    -0.85500
Zr145      Zr  0.22099808  0.79028580  0.35473487     2.26400
Zr146      Zr  0.26044213  0.86635895  0.41283906     2.06300
Zr147      Zr  0.10552174  0.80293768  0.34943074     2.10000
Zr148      Zr  0.23556603  0.92763525  0.35632559     1.78800
O149        O  0.03747367  0.71810957  0.34154417    -0.94300
O150        O  0.31727784  0.99967824  0.36534415    -0.42100
O151        O  0.19237777  0.84474254  0.34072252    -0.78700
O152        O  0.26792748  0.87528298  0.37003340    -0.97400
O153        O  0.21578889  0.78272097  0.39729255    -0.90700
O154        O  0.13376132  0.74812770  0.36380586    -0.93600
C155        C  0.18832300  0.99622664  0.38392638     1.00200
C156        C  0.02759869  0.83316551  0.38185477     1.13100
C157        C  0.23204633  0.93439802  0.45362158     1.03900
O158        O  0.34498218  0.93557703  0.41976831    -0.95700
O159        O  0.32666977  0.84932064  0.40121746    -0.91500
O160        O  0.30563610  0.81140461  0.36487764    -0.84600
C161        C  0.33554920  0.83021335  0.38267903     1.10500
O162        O  0.06317914  0.72062647  0.43634738    -0.97700
Zr163      Zr  0.12888518  0.74307005  0.40664030     1.88900
O164        O  0.19270284  0.70178032  0.36272870    -0.74300
O165        O  0.26328243  0.82291089  0.44870468    -0.53600
O166        O  0.14936344  0.72028896  0.44506300    -0.98300
O167        O  0.04927161  0.66933401  0.39613050    -0.55500
O168        O  0.15067896  0.68038377  0.39792724    -0.74900
C169        C  0.17120490  0.67133657  0.38026170     0.97500
O170        O  0.26043319  0.76637814  0.32346936    -0.63700
O171        O  0.07032271  0.83042173  0.31772020    -0.58500
O172        O  0.20207697  0.79062778  0.31195661    -0.95200
O173        O  0.13287670  0.79830150  0.30892820    -0.93600
O174        O  0.20726330  0.94823990  0.31954881    -0.93900
O175        O  0.29335099  0.94677721  0.32301361    -0.92700
C176        C  0.16916238  0.79487982  0.29954919     1.16300
H177        H  0.13319981  0.90470794  0.35964413     0.32300
H178        H  0.30264659  0.89138050  0.36523502     0.43100
H179        H  0.11625680  0.71570504  0.35616410     0.36700
H180        H  0.17008726  0.82324991  0.44097343     0.33100
H181        H  0.31906188  0.02718479  0.35543112     0.24900
H182        H  0.26041225  0.79132464  0.44274313     0.30900
H183        H  0.12956060  0.68319365  0.44553022     0.36800
H184        H  0.17999194  0.91567184  0.31356206     0.31200
H185        H  0.03405909  0.80551763  0.31746909     0.30100
H186        H  0.00654653  0.71989154  0.34369304     0.31800
H187        H  0.05673825  0.65302971  0.38275233     0.30800
H188        H  0.27986967  0.91481757  0.31408486     0.34800
H189        H  0.29258278  0.79700834  0.31968791     0.27500
H190        H  0.09467914  0.89829151  0.44641565     0.31700
H191        H  0.04374767  0.73611435  0.43048652     0.34600
H192        H  0.07248720  0.86167814  0.32372420     0.27200
H193        H  0.27000707  0.74347092  0.33121135     0.40000
H194        H  0.34712015  0.96358829  0.41016134     0.30100
H195        H  0.31431203  0.00899915  0.38198372     0.37700
H196        H  0.02937598  0.68294036  0.38874396     0.29600
H197        H  0.29831396  0.84289063  0.45437007     0.29600
H198        H  0.10107543  0.85333809  0.45518415     0.29900
Zr199      Zr  0.25404352  0.10247058  0.58874698     2.17500
O200        O  0.21169717  0.11582222  0.55506809    -0.52500
O201        O  0.18757869  0.01880218  0.59789278    -0.75700
O202        O  0.25700836  0.05940071  0.55246907    -0.82400
O203        O  0.21212353  0.16695577  0.63333651    -0.84200
O204        O  0.33439488  0.06800060  0.54967740    -0.79800
O205        O  0.18944009  0.12291907  0.59848970    -0.91400
O206        O  0.21446722  0.98708076  0.62729112    -0.77400
O207        O  0.30093728  0.06212721  0.59723049    -0.86900
O208        O  0.25128272  0.09284786  0.63124776    -0.86600
O209        O  0.33641714  0.15742932  0.57347099    -0.73300
O210        O  0.29001638  0.18484990  0.60553792    -0.85500
Zr211      Zr  0.41901034  0.19107317  0.64227586     2.26400
Zr212      Zr  0.38416474  0.11803613  0.58353811     2.06300
Zr213      Zr  0.28977420  0.17536387  0.64799895     2.10000
Zr214      Zr  0.29805485  0.05221719  0.63935519     1.78800
O215        O  0.30436620  0.25925129  0.65633878    -0.94300
O216        O  0.31050740  0.98303246  0.62777727    -0.42100
O217        O  0.33606037  0.13437949  0.65608195    -0.78700
O218        O  0.38271617  0.10712337  0.62616719    -0.97400
O219        O  0.42141212  0.20078138  0.59989370    -0.90700
O220        O  0.37256825  0.23213504  0.63396270    -0.93600
C221        C  0.18128621  0.98372001  0.61228486     1.00200
C222        C  0.18250950  0.14702854  0.61545921     1.13100
C223        C  0.28961273  0.05168097  0.54188265     1.03900
O224        O  0.39738889  0.04700541  0.57868149    -0.95700
O225        O  0.46869158  0.13833671  0.59426384    -0.91500
O226        O  0.48534145  0.17473849  0.63097934    -0.84600
C227        C  0.49682995  0.15732436  0.61274986     1.10500
O228        O  0.32905362  0.25994441  0.56107396    -0.97700
Zr229      Zr  0.37264834  0.23897394  0.59122270     1.88900
O230        O  0.47921533  0.27963541  0.63492862    -0.74300
O231        O  0.43271867  0.16142777  0.54811517    -0.53600
O232        O  0.41671498  0.26157707  0.55304564    -0.98300
O233        O  0.36361686  0.31109552  0.60115200    -0.55500
O234        O  0.45582580  0.30344367  0.60119988    -0.74900
C235        C  0.48662581  0.31134905  0.61821270     0.97500
O236        O  0.47824227  0.20744164  0.67480838    -0.63700
O237        O  0.22634048  0.14331555  0.67944702    -0.58500
O238        O  0.40121388  0.19282525  0.68486396    -0.95200
O239        O  0.32316473  0.18221894  0.68820601    -0.93600
O240        O  0.24925058  0.02546267  0.67618463    -0.93900
O241        O  0.33808073  0.03121017  0.67135731    -0.92700
C242        C  0.36375322  0.18735559  0.69732692     1.16300
H243        H  0.21735812  0.07353312  0.63709956     0.32300
H244        H  0.40235149  0.09192322  0.63064830     0.43100
H245        H  0.38693534  0.26424332  0.64188649     0.36700
H246        H  0.33495836  0.16034010  0.55629113     0.33100
H247        H  0.28660317  0.95448814  0.63779988     0.24900
H248        H  0.44278837  0.13823254  0.54117826     0.30900
H249        H  0.44677562  0.25850277  0.55576112     0.36800
H250        H  0.25977485  0.05688345  0.68518513     0.31200
H251        H  0.21463556  0.16785107  0.68068341     0.30100
H252        H  0.29115244  0.25705809  0.67272462     0.31800
H253        H  0.38551766  0.32691730  0.61520903     0.30800
H254        H  0.35945384  0.06338823  0.67971708     0.34800
H255        H  0.47976278  0.17628020  0.67677334     0.27500
H256        H  0.18611159  0.08188161  0.54966571     0.31700
H257        H  0.29472161  0.23058949  0.56071492     0.34600
H258        H  0.19753298  0.11274926  0.67270053     0.27200
H259        H  0.51154301  0.23249978  0.66850919     0.40000
H260        H  0.39427746  0.03334856  0.59504736     0.30100
H261        H  0.29669138  0.97402631  0.61135699     0.37700
H262        H  0.32916207  0.29645313  0.60754234     0.29600
H263        H  0.40810052  0.16094411  0.53657690     0.29600
H264        H  0.23671764  0.12933096  0.54198470     0.29900
Zr265      Zr  0.11810194  0.24042625  0.40853000     2.17500
O266        O  0.13072579  0.19699340  0.44198215    -0.52500
O267        O  0.03581799  0.17258810  0.39833902    -0.75700
O268        O  0.07353789  0.24206677  0.44454006    -0.82400
O269        O  0.18863057  0.20296371  0.36482904    -0.84200
O270        O  0.07920761  0.31841147  0.44671045    -0.79800
O271        O  0.14222780  0.17835506  0.39897110    -0.91400
O272        O  0.00662583  0.19697061  0.36681962    -0.77400
O273        O  0.07612115  0.28528033  0.39899292    -0.86900
O274        O  0.11150658  0.23833430  0.36590159    -0.86600
O275        O  0.16913699  0.32310991  0.42444345    -0.73300
O276        O  0.20162951  0.27913215  0.39307100    -0.85500
Zr277      Zr  0.20612509  0.40693772  0.35585717     2.26400
Zr278      Zr  0.12848484  0.36898544  0.41310673     2.06300
Zr279      Zr  0.19501662  0.27991714  0.35035691     2.10000
Zr280      Zr  0.06905918  0.28290376  0.35675152     1.78800
O281        O  0.28065781  0.29875117  0.34326517    -0.94300
O282        O  0.99389571  0.28479408  0.36847472    -0.42100
O283        O  0.15226392  0.32405394  0.34110312    -0.78700
O284        O  0.12080505  0.36779772  0.37044790    -0.97400
O285        O  0.21238362  0.40848712  0.39839687    -0.90700
O286        O  0.24845133  0.36252050  0.36555904    -0.93600
C287        C  0.00247449  0.16466129  0.38256168     1.00200
C288        C  0.16805283  0.17273112  0.38244116     1.13100
C289        C  0.06419975  0.27401550  0.45471813     1.03900
O290        O  0.05356558  0.37632730  0.41456821    -0.95700
O291        O  0.14839776  0.45359087  0.40217697    -0.91500
O292        O  0.18277577  0.46907504  0.36502710    -0.84600
C293        C  0.16579849  0.48091390  0.38329218     1.10500
O294        O  0.26512070  0.31890505  0.44209693    -0.97700
Zr295      Zr  0.25198429  0.36164511  0.40849049     1.88900
O296        O  0.29425232  0.46637117  0.36486296    -0.74300
O297        O  0.16457435  0.41668290  0.44969187    -0.53600
O298        O  0.27184369  0.41271651  0.44456680    -0.98300
O299        O  0.32446318  0.35173720  0.40114905    -0.55500
O300        O  0.31890615  0.44296545  0.39831375    -0.74900
C301        C  0.32640425  0.47364261  0.38132631     0.97500
O302        O  0.23145826  0.47857131  0.32917143    -0.63700
O303        O  0.16687596  0.21781637  0.31834659    -0.58500
O304        O  0.20800900  0.38833651  0.31308425    -0.95200
O305        O  0.20237358  0.31240572  0.30979954    -0.93600
O306        O  0.05093352  0.24103295  0.31802764    -0.93900
O307        O  0.04434082  0.32382134  0.32677834    -0.92700
C308        C  0.20525301  0.35198581  0.30053805     1.16300
H309        H  0.09383493  0.20441716  0.35988491     0.32300
H310        H  0.10458112  0.38625612  0.36558677     0.43100
H311        H  0.28122290  0.37783668  0.35829496     0.36700
H312        H  0.17076524  0.32169094  0.44169682     0.33100
H313        H  0.96859645  0.26452939  0.35619428     0.24900
H314        H  0.19341228  0.44879026  0.44426945     0.30900
H315        H  0.30865031  0.42892127  0.44633824     0.36800
H316        H  0.06018438  0.21474839  0.31989318     0.31200
H317        H  0.19371616  0.20932608  0.31664218     0.30100
H318        H  0.29211931  0.32160141  0.32928146     0.31800
H319        H  0.33888263  0.36933552  0.38584442     0.30800
H320        H  0.07636301  0.35066135  0.32009484     0.34800
H321        H  0.26133208  0.48295837  0.32043613     0.27500
H322        H  0.09672019  0.17158762  0.44735839     0.31700
H323        H  0.29979894  0.34167410  0.44763282     0.34600
H324        H  0.13794812  0.18719586  0.32497932     0.27200
H325        H  0.20485724  0.46794552  0.31689192     0.40000
H326        H  0.02597696  0.34275124  0.40994661     0.30100
H327        H  0.98192330  0.26415100  0.38319483     0.37700
H328        H  0.31007645  0.31577404  0.39723671     0.29600
H329        H  0.13967093  0.42568611  0.45533753     0.29600
H330        H  0.14446385  0.22186734  0.45513059     0.29900
Zr331      Zr  0.89099657  0.12973161  0.58817555     2.17500
O332        O  0.87393780  0.07440115  0.55387224    -0.52500
O333        O  0.97361331  0.14397566  0.59732005    -0.75700
O334        O  0.93592195  0.17579916  0.55247467    -0.82400
O335        O  0.82886253  0.02483662  0.63338259    -0.84200
O336        O  0.93214237  0.24746430  0.55052969    -0.79800
O337        O  0.87011157  0.04462693  0.59775883    -0.91400
O338        O  0.00481627  0.20046606  0.62768706    -0.77400
O339        O  0.93335956  0.21699641  0.59716905    -0.86900
O340        O  0.89982204  0.13517670  0.63071119    -0.86600
O341        O  0.83822203  0.15970273  0.57280261    -0.73300
O342        O  0.80847459  0.08430924  0.60477635    -0.85500
Zr343      Zr  0.80441719  0.20792322  0.64145112     2.26400
Zr344      Zr  0.87956532  0.24677547  0.58334512     2.06300
Zr345      Zr  0.81741094  0.09281454  0.64735062     2.10000
Zr346      Zr  0.94197096  0.22238622  0.63937051     1.78800
O347        O  0.73380505  0.02220257  0.65465831    -0.94300
O348        O  0.01216976  0.30401944  0.62847188    -0.42100
O349        O  0.85943474  0.17994406  0.65558522    -0.78700
O350        O  0.88919311  0.25456045  0.62604620    -0.97400
O351        O  0.79612423  0.20189265  0.59899663    -0.90700
O352        O  0.76212848  0.12041090  0.63288773    -0.93600
C353        C  0.00797298  0.17088359  0.61243444     1.00200
C354        C  0.84756561  0.01445594  0.61523551     1.13100
C355        C  0.94653440  0.21757845  0.54250222     1.03900
O356        O  0.94984216  0.33174760  0.57910674    -0.95700
O357        O  0.86042856  0.31181123  0.59443354    -0.91500
O358        O  0.82661901  0.29288274  0.63165583    -0.84600
C359        C  0.84312410  0.32160282  0.61334875     1.10500
O360        O  0.73919312  0.05243862  0.55901104    -0.97700
Zr361      Zr  0.75617349  0.11466995  0.59004174     1.88900
O362        O  0.71679920  0.18212173  0.63267606    -0.74300
O363        O  0.83929185  0.25228451  0.54681458    -0.53600
O364        O  0.73196817  0.13731446  0.55257143    -0.98300
O365        O  0.68439858  0.03311556  0.59994239    -0.55500
O366        O  0.69126370  0.13286775  0.59964881    -0.74900
C367        C  0.68446691  0.15735754  0.61625146     0.97500
O368        O  0.78064427  0.24751462  0.67270820    -0.63700
O369        O  0.84700628  0.06238688  0.68029231    -0.58500
O370        O  0.80318492  0.18950213  0.68422423    -0.95200
O371        O  0.81145615  0.12064231  0.68757240    -0.93600
O372        O  0.96742481  0.19953439  0.67636920    -0.93900
O373        O  0.96289109  0.27997075  0.67292707    -0.92700
C374        C  0.80748747  0.15681254  0.69674293     1.16300
H375        H  0.91822389  0.11955107  0.63649798     0.32300
H376        H  0.90540594  0.28940427  0.63070428     0.43100
H377        H  0.72984074  0.10295807  0.64064693     0.36700
H378        H  0.83573414  0.15606701  0.55557902     0.33100
H379        H  0.03878426  0.31002385  0.64014333     0.24900
H380        H  0.82159917  0.27029785  0.55154753     0.30900
H381        H  0.73746950  0.17144485  0.55532996     0.36800
H382        H  0.94517790  0.16280107  0.67772756     0.31200
H383        H  0.82248602  0.02610140  0.68154811     0.30100
H384        H  0.73500783  0.01161688  0.67127526     0.31800
H385        H  0.66744335  0.03930969  0.61345683     0.30800
H386        H  0.93407049  0.28558642  0.67427286     0.34800
H387        H  0.81142050  0.27937851  0.67671041     0.27500
H388        H  0.90709244  0.08068779  0.54834101     0.31700
H389        H  0.70471495  0.04116385  0.55337578     0.34600
H390        H  0.87807541  0.06412912  0.67436073     0.27200
H391        H  0.75832508  0.25774931  0.66489838     0.40000
H392        H  0.97544647  0.33346105  0.59035557     0.30100
H393        H  0.02446901  0.29829538  0.61308622     0.37700
H394        H  0.69915114  0.01403664  0.60709666     0.29600
H395        H  0.86711847  0.27637734  0.53651116     0.29600
H396        H  0.86192804  0.08794877  0.54101809     0.29900
Zr397      Zr  0.14063418  0.24184082  0.08872764     2.17500
O398        O  0.08255770  0.20142552  0.05557802    -0.52500
O399        O  0.15581163  0.17385496  0.09749674    -0.75700
O400        O  0.18490896  0.24301614  0.05213699    -0.82400
O401        O  0.03576548  0.20150006  0.13408958    -0.84200
O402        O  0.25377828  0.32043297  0.04884581    -0.79800
O403        O  0.05593180  0.17832168  0.09905902    -0.91400
O404        O  0.21399732  0.19964785  0.12707613    -0.77400
O405        O  0.22805089  0.28719247  0.09671713    -0.86900
O406        O  0.14816797  0.23898944  0.13123740    -0.86600
O407        O  0.16964471  0.32443002  0.07320922    -0.73300
O408        O  0.09636643  0.27951585  0.10603949    -0.85500
Zr409      Zr  0.22168870  0.40744063  0.14209101     2.26400
Zr410      Zr  0.25711144  0.37079866  0.08301984     2.06300
Zr411      Zr  0.10655167  0.27943166  0.14851323     2.10000
Zr412      Zr  0.23591810  0.28430700  0.13875502     1.78800
O413        O  0.04220558  0.30002389  0.15877911    -0.94300
O414        O  0.31612160  0.29503813  0.12576627    -0.42100
O415        O  0.19416675  0.32424034  0.15584407    -0.78700
O416        O  0.26732763  0.36930254  0.12562851    -0.97400
O417        O  0.21364628  0.40976070  0.09971533    -0.90700
O418        O  0.13385330  0.36248621  0.13411915    -0.93600
C419        C  0.18374222  0.16674349  0.11208395     1.00200
C420        C  0.02529757  0.17186895  0.11609948     1.13100
C421        C  0.22506276  0.27547361  0.04132500     1.03900
O422        O  0.33791230  0.37732732  0.07559366    -0.95700
O423        O  0.32528222  0.45352554  0.09384546    -0.91500
O424        O  0.30546263  0.47074647  0.13035771    -0.84600
C425        C  0.33488811  0.48160028  0.11238421     1.10500
O426        O  0.05945431  0.32039193  0.06208110    -0.97700
Zr427      Zr  0.12639838  0.36228249  0.09135793     1.88900
O428        O  0.19471133  0.46875334  0.13482989    -0.74300
O429        O  0.26488782  0.42315935  0.04872398    -0.53600
O430        O  0.14940882  0.40648557  0.05317145    -0.98300
O431        O  0.04562049  0.35464921  0.10063121    -0.55500
O432        O  0.14848242  0.44656291  0.10084127    -0.74900
C433        C  0.17141244  0.47704094  0.11794413     0.97500
O434        O  0.26636174  0.46975235  0.17328146    -0.63700
O435        O  0.07048139  0.21797633  0.18073253    -0.58500
O436        O  0.20415425  0.39029279  0.18510295    -0.95200
O437        O  0.13897376  0.31077615  0.18861715    -0.93600
O438        O  0.21359108  0.23771688  0.17627789    -0.93900
O439        O  0.29947382  0.32047126  0.16996578    -0.92700
C440        C  0.17399268  0.35186429  0.19770683     1.16300
H441        H  0.13288641  0.20503198  0.13716431     0.32300
H442        H  0.30232210  0.38794035  0.12996894     0.43100
H443        H  0.11696719  0.37779131  0.14196820     0.36700
H444        H  0.16500626  0.32304130  0.05604834     0.33100
H445        H  0.31957379  0.26907829  0.13461666     0.24900
H446        H  0.29935156  0.43554335  0.04275822     0.30900
H447        H  0.13021255  0.42432602  0.05249101     0.36800
H448        H  0.19847718  0.25337708  0.18616407     0.31200
H449        H  0.03446155  0.20754560  0.18104829     0.30100
H450        H  0.01159346  0.27398029  0.15069882     0.31800
H451        H  0.05293222  0.38874127  0.10509000     0.30800
H452        H  0.29196393  0.34406432  0.17854110     0.34800
H453        H  0.29829816  0.47007082  0.17584206     0.27500
H454        H  0.09100300  0.17686180  0.04883514     0.31700
H455        H  0.05272697  0.28543219  0.06166144     0.34600
H456        H  0.07157580  0.18816674  0.17496195     0.27200
H457        H  0.27606536  0.50270470  0.16600425     0.40000
H458        H  0.35065191  0.37593365  0.09168459     0.30100
H459        H  0.31076035  0.28345466  0.10891981     0.37700
H460        H  0.03483977  0.33535505  0.11574727     0.29600
H461        H  0.24302824  0.39951330  0.03622717     0.29600
H462        H  0.09280398  0.22768780  0.04313595     0.29900
Zr463      Zr  0.25335909  0.13089872  0.90760274     2.17500
O464        O  0.21373759  0.07526989  0.94167497    -0.52500
O465        O  0.18578965  0.14594751  0.89778925    -0.75700
O466        O  0.25439060  0.17705418  0.94333716    -0.82400
O467        O  0.21392159  0.02368007  0.86405344    -0.84200
O468        O  0.33155668  0.24636574  0.94665109    -0.79800
O469        O  0.18969193  0.04549458  0.89828869    -0.91400
O470        O  0.21030848  0.20011134  0.86644646    -0.77400
O471        O  0.29851958  0.21785695  0.89837962    -0.86900
O472        O  0.25097682  0.13583833  0.86496750    -0.86600
O473        O  0.33569992  0.16135679  0.92347107    -0.73300
O474        O  0.29090953  0.08532938  0.89176554    -0.85500
Zr475      Zr  0.41946072  0.20860157  0.85499692     2.26400
Zr476      Zr  0.38182154  0.24818781  0.91255795     2.06300
Zr477      Zr  0.29150232  0.09326406  0.84911460     2.10000
Zr478      Zr  0.29619065  0.22307119  0.85616477     1.78800
O479        O  0.30880827  0.02631090  0.83950441    -0.94300
O480        O  0.30373744  0.30247048  0.86831947    -0.42100
O481        O  0.33651230  0.18029329  0.84073079    -0.78700
O482        O  0.38103008  0.25527775  0.86978910    -0.97400
O483        O  0.42084738  0.20335842  0.89750633    -0.90700
O484        O  0.37401377  0.12123721  0.86408251    -0.93600
C485        C  0.17785838  0.17157260  0.88210073     1.00200
C486        C  0.18375826  0.01408853  0.88169862     1.13100
C487        C  0.28646754  0.21750803  0.95404783     1.03900
O488        O  0.38589148  0.32904596  0.91493471    -0.95700
O489        O  0.46535464  0.31434071  0.90177121    -0.91500
O490        O  0.48300467  0.29297394  0.86572268    -0.84600
C491        C  0.49367312  0.32304706  0.88342186     1.10500
O492        O  0.33539119  0.06241239  0.94161298    -0.97700
Zr493      Zr  0.37327648  0.11648113  0.90697222     1.88900
O494        O  0.47912065  0.17981767  0.86316381    -0.74300
O495        O  0.43431794  0.26070121  0.94743508    -0.53600
O496        O  0.42706695  0.14527100  0.94221106    -0.98300
O497        O  0.35536752  0.03087647  0.90048761    -0.55500
O498        O  0.45273012  0.12797456  0.89530144    -0.74900
C499        C  0.48462957  0.15254443  0.87897026     0.97500
O500        O  0.48249114  0.25048035  0.82376132    -0.63700
O501        O  0.22972151  0.06063942  0.81694070    -0.58500
O502        O  0.40276534  0.19032078  0.81222224    -0.95200
O503        O  0.32513663  0.12206903  0.80902308    -0.93600
O504        O  0.25204752  0.20151034  0.81799202    -0.93900
O505        O  0.33694956  0.28413390  0.82421327    -0.92700
C506        C  0.36538030  0.15797992  0.79979090     1.16300
H507        H  0.21709090  0.12006810  0.85896596     0.32300
H508        H  0.39993475  0.28998383  0.86492120     0.43100
H509        H  0.38871840  0.10335100  0.85665067     0.36700
H510        H  0.33417751  0.15785439  0.94070144     0.33100
H511        H  0.28266075  0.30807146  0.85677008     0.24900
H512        H  0.43588901  0.28965655  0.95592546     0.30900
H513        H  0.43921798  0.12119983  0.94413035     0.36800
H514        H  0.26309723  0.18019493  0.80981272     0.31200
H515        H  0.21511430  0.02379351  0.81734182     0.30100
H516        H  0.28683662  0.99847064  0.85035928     0.31800
H517        H  0.37147848  0.03183564  0.88501189     0.30800
H518        H  0.36540465  0.27983780  0.81926515     0.34800
H519        H  0.48344039  0.28252895  0.82043042     0.27500
H520        H  0.18716311  0.08204945  0.94713098     0.31700
H521        H  0.30035871  0.05535335  0.94169542     0.34600
H522        H  0.20238398  0.06632925  0.82229552     0.27200
H523        H  0.51515753  0.26023363  0.83133041     0.40000
H524        H  0.38885738  0.34037319  0.89810832     0.30100
H525        H  0.28524980  0.29514435  0.88365725     0.37700
H526        H  0.31900294  0.01152912  0.89705830     0.29600
H527        H  0.41384192  0.23162288  0.95796172     0.29600
H528        H  0.23910053  0.08830892  0.95462190     0.29900
Zr529      Zr  0.11683070  0.85260741  0.08773484     2.17500
O530        O  0.13220661  0.90781072  0.05354734    -0.52500
O531        O  0.03378023  0.83719788  0.09717299    -0.75700
O532        O  0.07263923  0.80537225  0.05209105    -0.82400
O533        O  0.17989877  0.95851621  0.13217804    -0.84200
O534        O  0.07939237  0.73533123  0.04997460    -0.79800
O535        O  0.13784484  0.93809792  0.09678895    -0.91400
O536        O  0.00412866  0.78224224  0.12820509    -0.77400
O537        O  0.07657077  0.76537976  0.09661579    -0.86900
O538        O  0.10827694  0.84715522  0.13029524    -0.86600
O539        O  0.17093450  0.82414672  0.07242289    -0.73300
O540        O  0.19922864  0.89906742  0.10430328    -0.85500
Zr541      Zr  0.20671913  0.77762255  0.14156231     2.26400
Zr542      Zr  0.13193426  0.73720320  0.08321943     2.06300
Zr543      Zr  0.19084101  0.89070523  0.14692181     2.10000
Zr544      Zr  0.06735966  0.75978988  0.13871507     1.78800
O545        O  0.27515136  0.95921001  0.15521289    -0.94300
O546        O  0.99685073  0.68062668  0.12511604    -0.42100
O547        O  0.14980194  0.80358162  0.15510416    -0.78700
O548        O  0.12215978  0.72960808  0.12593939    -0.97400
O549        O  0.21503982  0.78340351  0.09908841    -0.90700
O550        O  0.24763535  0.86490930  0.13262964    -0.93600
C551        C  0.00010343  0.81101422  0.11273063     1.00200
C552        C  0.16099802  0.96869627  0.11405100     1.13100
C553        C  0.06360221  0.76416441  0.04198055     1.03900
O554        O  0.06411471  0.65144495  0.07739266    -0.95700
O555        O  0.15008415  0.67213615  0.09561797    -0.91500
O556        O  0.18854434  0.69383460  0.13179337    -0.84600
C557        C  0.16971457  0.66374542  0.11408566     1.10500
O558        O  0.27500481  0.93245840  0.05816803    -0.97700
Zr559      Zr  0.25276800  0.87020860  0.08972750     1.88900
O560        O  0.29464456  0.80525362  0.13265751    -0.74300
O561        O  0.17631444  0.73272830  0.04806621    -0.53600
O562        O  0.27528137  0.84487326  0.05258157    -0.98300
O563        O  0.32173168  0.95372152  0.09909075    -0.55500
O564        O  0.31838775  0.85350841  0.09928547    -0.74900
C565        C  0.32612598  0.82974675  0.11587880     0.97500
O566        O  0.22897178  0.73863630  0.17378172    -0.63700
O567        O  0.16515873  0.92630972  0.17917259    -0.58500
O568        O  0.20822922  0.79679001  0.18432774    -0.95200
O569        O  0.19207162  0.86071097  0.18736878    -0.93600
O570        O  0.04525955  0.78112686  0.17703047    -0.93900
O571        O  0.04339033  0.69613521  0.16968575    -0.92700
C572        C  0.19933099  0.82667084  0.19671617     1.16300
H573        H  0.08958499  0.86237260  0.13619232     0.32300
H574        H  0.10674683  0.69488631  0.13073516     0.43100
H575        H  0.28001527  0.88290191  0.14027060     0.36700
H576        H  0.17332519  0.82761240  0.05519378     0.33100
H577        H  0.96996836  0.67268419  0.13693930     0.24900
H578        H  0.19389857  0.71509486  0.05360408     0.30900
H579        H  0.31202908  0.86686381  0.05121059     0.36800
H580        H  0.07160005  0.81635198  0.17990506     0.31200
H581        H  0.18955481  0.96274344  0.17895678     0.30100
H582        H  0.27583491  0.98933113  0.14854833     0.31800
H583        H  0.33999712  0.94889347  0.11245400     0.30800
H584        H  0.07546252  0.69938472  0.17509866     0.34800
H585        H  0.19875405  0.70567525  0.17686255     0.27500
H586        H  0.09869498  0.89912558  0.04740734     0.31700
H587        H  0.24511058  0.91877304  0.04769968     0.34600
H588        H  0.13319073  0.92327979  0.17375857     0.27200
H589        H  0.25366064  0.73063752  0.16681130     0.40000
H590        H  0.04696008  0.64149025  0.09310007     0.30100
H591        H  0.98498805  0.68904941  0.11029459     0.37700
H592        H  0.30552967  0.97126121  0.10641551     0.29600
H593        H  0.14963931  0.70839321  0.03732937     0.29600
H594        H  0.14675608  0.89616896  0.04102425     0.29900
Zr595      Zr  0.89142916  0.74165686  0.90852167     2.17500
O596        O  0.87630196  0.78165643  0.94265057    -0.52500
O597        O  0.97448183  0.80908329  0.89973166    -0.75700
O598        O  0.93604367  0.73885648  0.94420057    -0.82400
O599        O  0.82572270  0.78300274  0.86414003    -0.84200
O600        O  0.93078737  0.66267043  0.94563155    -0.79800
O601        O  0.87036917  0.80590932  0.89883739    -0.91400
O602        O  0.00431171  0.78370312  0.86886981    -0.77400
O603        O  0.93207360  0.69548029  0.89919402    -0.86900
O604        O  0.90011022  0.74511839  0.86594928    -0.86600
O605        O  0.83783586  0.65895966  0.92383338    -0.73300
O606        O  0.80910135  0.70541340  0.89195478    -0.85500
Zr607      Zr  0.80235953  0.57681268  0.85467173     2.26400
Zr608      Zr  0.87739916  0.61181983  0.91279806     2.06300
Zr609      Zr  0.81756308  0.70574401  0.84935439     2.10000
Zr610      Zr  0.94094293  0.69901453  0.85705050     1.78800
O611        O  0.73500395  0.69407554  0.84061746    -0.94300
O612        O  0.01007311  0.68676489  0.86891882    -0.42100
O613        O  0.85845093  0.65976529  0.84070594    -0.78700
O614        O  0.88698206  0.61386609  0.87003137    -0.97400
O615        O  0.79414306  0.57445294  0.89715065    -0.90700
O616        O  0.76125346  0.62291984  0.86370459    -0.93600
C617        C  0.00841924  0.81625457  0.88448078     1.00200
C618        C  0.84571721  0.81253036  0.88202586     1.13100
C619        C  0.94599610  0.70693672  0.95391916     1.03900
O620        O  0.94770918  0.59752245  0.91766066    -0.95700
O621        O  0.85711778  0.52733407  0.90157616    -0.91500
O622        O  0.82159282  0.51178608  0.86470934    -0.84600
C623        C  0.83877558  0.49977209  0.88285582     1.10500
O624        O  0.73663277  0.66309372  0.93916614    -0.97700
Zr625      Zr  0.75587011  0.62291603  0.90658005     1.88900
O626        O  0.71462607  0.51592264  0.86348570    -0.74300
O627        O  0.83417107  0.56379418  0.94842835    -0.53600
O628        O  0.72882796  0.57145619  0.94265806    -0.98300
O629        O  0.68891795  0.64095259  0.89824188    -0.55500
O630        O  0.68891889  0.54182563  0.89568474    -0.74900
C631        C  0.68198750  0.50978663  0.87946350     0.97500
O632        O  0.78351369  0.51715497  0.82205366    -0.63700
O633        O  0.85266369  0.76903971  0.81786877    -0.58500
O634        O  0.79795710  0.59394841  0.81209843    -0.95200
O635        O  0.80939629  0.67239975  0.80901387    -0.93600
O636        O  0.96441854  0.74440404  0.81918770    -0.93900
O637        O  0.96643823  0.66468529  0.82425537    -0.92700
C638        C  0.80359273  0.63166323  0.79971630     1.16300
H639        H  0.91891818  0.77921225  0.86022665     0.32300
H640        H  0.90247624  0.59469098  0.86522509     0.43100
H641        H  0.72889204  0.60864351  0.85605243     0.36700
H642        H  0.83570620  0.66021144  0.94106789     0.33100
H643        H  0.04050588  0.71729190  0.86328835     0.24900
H644        H  0.84360133  0.53753013  0.94961857     0.30900
H645        H  0.75627817  0.58923838  0.95436961     0.36800
H646        H  0.93990577  0.75584800  0.81691567     0.31200
H647        H  0.82853025  0.78107278  0.81593244     0.30100
H648        H  0.72384488  0.67302998  0.82601576     0.31800
H649        H  0.67080648  0.61976907  0.88428988     0.30800
H650        H  0.93461959  0.63703377  0.81781658     0.34800
H651        H  0.81484131  0.51653558  0.81902827     0.27500
H652        H  0.90989691  0.80787035  0.94810715     0.31700
H653        H  0.76523632  0.69787722  0.93948117     0.34600
H654        H  0.88282293  0.79774469  0.82495053     0.27200
H655        H  0.75992728  0.48373204  0.82878543     0.40000
H656        H  0.95794025  0.59506893  0.90113489     0.30100
H657        H  0.01164189  0.68974039  0.88659428     0.37700
H658        H  0.70618759  0.67563032  0.89189701     0.29600
H659        H  0.85119753  0.58626161  0.96217478     0.29600
H660        H  0.86366208  0.75616468  0.95555306     0.29900
Zr661      Zr  0.75428517  0.87896154  0.08809739     2.17500
O662        O  0.79990860  0.86729968  0.05540701    -0.52500
O663        O  0.82049760  0.96297623  0.09705962    -0.75700
O664        O  0.75215989  0.92199956  0.05176115    -0.82400
O665        O  0.79584125  0.81643871  0.13419109    -0.84200
O666        O  0.67485666  0.91349970  0.04846469    -0.79800
O667        O  0.81790038  0.85771583  0.09858267    -0.91400
O668        O  0.79290462  0.99517326  0.12585599    -0.77400
O669        O  0.70726074  0.91943364  0.09576211    -0.86900
O670        O  0.75639681  0.88954008  0.13049502    -0.86600
O671        O  0.67224644  0.82425252  0.07227582    -0.73300
O672        O  0.71762715  0.79684274  0.10530933    -0.85500
Zr673      Zr  0.58771282  0.79189016  0.14064287     2.26400
Zr674      Zr  0.62421503  0.86373972  0.08177623     2.06300
Zr675      Zr  0.71676429  0.80732802  0.14774270     2.10000
Zr676      Zr  0.70951244  0.93038233  0.13775795     1.78800
O677        O  0.69904503  0.72296593  0.15759017    -0.94300
O678        O  0.69989390  0.00164471  0.12675111    -0.42100
O679        O  0.67038540  0.84853908  0.15462142    -0.78700
O680        O  0.62497909  0.87578816  0.12422912    -0.97400
O681        O  0.58625499  0.78128441  0.09839531    -0.90700
O682        O  0.63426662  0.75055840  0.13318720    -0.93600
C683        C  0.82648170  0.99818827  0.11128004     1.00200
C684        C  0.82519256  0.83496701  0.11607994     1.13100
C685        C  0.71997395  0.93035122  0.04120811     1.03900
O686        O  0.61479483  0.93679231  0.07573106    -0.95700
O687        O  0.54024224  0.84619102  0.09170921    -0.91500
O688        O  0.52438727  0.81192026  0.12884651    -0.84600
C689        C  0.51276341  0.82882482  0.11048849     1.10500
O690        O  0.67846827  0.71996033  0.06106107    -0.97700
Zr691      Zr  0.63527841  0.74307395  0.09045399     1.88900
O692        O  0.52758128  0.70315780  0.13291257    -0.74300
O693        O  0.57549309  0.81968005  0.04650367    -0.53600
O694        O  0.59210299  0.72211790  0.05201239    -0.98300
O695        O  0.64184331  0.66977613  0.10099046    -0.55500
O696        O  0.55138585  0.67944428  0.09932578    -0.74900
C697        C  0.52025991  0.67159177  0.11611656     0.97500
O698        O  0.52409607  0.77121911  0.17147477    -0.63700
O699        O  0.77698421  0.83485058  0.18055911    -0.58500
O700        O  0.60454115  0.79377022  0.18367830    -0.95200
O701        O  0.68342245  0.80677623  0.18752553    -0.93600
O702        O  0.75815625  0.95324413  0.17462927    -0.93900
O703        O  0.67120248  0.95360088  0.16964912    -0.92700
C704        C  0.64252865  0.80146571  0.19640140     1.16300
H705        H  0.79021381  0.90879397  0.13649964     0.32300
H706        H  0.60587843  0.89175331  0.12834510     0.43100
H707        H  0.61940088  0.71849532  0.14118479     0.36700
H708        H  0.67394304  0.82117244  0.05511841     0.33100
H709        H  0.72326054  0.02916796  0.13741469     0.24900
H710        H  0.54606343  0.78914855  0.05288621     0.30900
H711        H  0.57168559  0.68505813  0.05190642     0.36800
H712        H  0.75608578  0.92174748  0.18019997     0.31200
H713        H  0.78625338  0.80851372  0.18211450     0.30100
H714        H  0.72774824  0.72094274  0.15097179     0.31800
H715        H  0.61900243  0.65417893  0.11476861     0.30800
H716        H  0.64126022  0.92165786  0.17436537     0.34800
H717        H  0.52271479  0.80225117  0.17427589     0.27500
H718        H  0.82547421  0.90155837  0.05037824     0.31700
H719        H  0.70598470  0.75236019  0.05506283     0.34600
H720        H  0.80752028  0.86463802  0.17444393     0.27200
H721        H  0.49165271  0.74766656  0.16387258     0.40000
H722        H  0.62630823  0.95567700  0.09094976     0.30100
H723        H  0.71524017  0.01172351  0.11065790     0.37700
H724        H  0.67582295  0.68370006  0.10788414     0.29600
H725        H  0.56172609  0.84064498  0.04061438     0.29600
H726        H  0.77598410  0.85381213  0.04187728     0.29900
Zr727      Zr  0.86416775  0.10407178  0.90824346     2.17500
O728        O  0.92241647  0.11687457  0.94068440    -0.52500
O729        O  0.84727794  0.02031988  0.90006652    -0.75700
O730        O  0.82043039  0.06306215  0.94512004    -0.82400
O731        O  0.96869687  0.16781966  0.86266039    -0.84200
O732        O  0.74846421  0.06610928  0.94719616    -0.79800
O733        O  0.94878866  0.12419647  0.89758770    -0.91400
O734        O  0.79187125  0.98936644  0.86933268    -0.77400
O735        O  0.77666424  0.06137639  0.89973826    -0.86900
O736        O  0.85749881  0.09466559  0.86576699    -0.86600
O737        O  0.83378039  0.15628353  0.92397191    -0.73300
O738        O  0.90870111  0.18694254  0.89182348    -0.85500
Zr739      Zr  0.78365057  0.18925467  0.85514501     2.26400
Zr740      Zr  0.74656685  0.11502144  0.91358880     2.06300
Zr741      Zr  0.89924563  0.17759520  0.84927635     2.10000
Zr742      Zr  0.77000327  0.05203549  0.85761210     1.78800
O743        O  0.96602409  0.26322723  0.84182387    -0.94300
O744        O  0.68972076  0.97962692  0.86842669    -0.42100
O745        O  0.81194771  0.13447288  0.84121822    -0.78700
O746        O  0.73765089  0.10461680  0.87092695    -0.97400
O747        O  0.79009167  0.19811839  0.89761588    -0.90700
O748        O  0.87105271  0.23233889  0.86376718    -0.93600
C749        C  0.82060680  0.98595989  0.88495948     1.00200
C750        C  0.97910090  0.14793065  0.88030916     1.13100
C751        C  0.77896026  0.05269454  0.95529803     1.03900
O752        O  0.66403515  0.04274086  0.92100307    -0.95700
O753        O  0.67953563  0.13118225  0.90246672    -0.91500
O754        O  0.69973831  0.16825556  0.86593907    -0.84600
C755        C  0.67022207  0.14970104  0.88384102     1.10500
O756        O  0.94051274  0.25904323  0.93738838    -0.97700
Zr757      Zr  0.87709985  0.23829860  0.90662939     1.88900
O758        O  0.81030960  0.27759839  0.86295212    -0.74300
O759        O  0.74117342  0.15838525  0.94890786    -0.53600
O760        O  0.85307997  0.26176318  0.94393610    -0.98300
O761        O  0.95800357  0.31214908  0.89815345    -0.55500
O762        O  0.85660552  0.30154638  0.89694025    -0.74900
C763        C  0.83377343  0.30925090  0.87984447     0.97500
O764        O  0.74134985  0.20839917  0.82335772    -0.63700
O765        O  0.93468075  0.15379410  0.81621471    -0.58500
O766        O  0.80121296  0.18962107  0.81224555    -0.95200
O767        O  0.86957524  0.18062581  0.80909040    -0.93600
O768        O  0.79545808  0.03247440  0.81972193    -0.93900
O769        O  0.70633283  0.02468897  0.82647775    -0.92700
C770        C  0.83351485  0.18456137  0.79980373     1.16300
H771        H  0.87304632  0.07627982  0.85985391     0.32300
H772        H  0.70277563  0.08822036  0.86636951     0.43100
H773        H  0.88791228  0.26465329  0.85599219     0.36700
H774        H  0.83781895  0.15861733  0.94117156     0.33100
H775        H  0.68990241  0.95069958  0.86081007     0.24900
H776        H  0.73874816  0.18706608  0.94251441     0.30900
H777        H  0.84435832  0.23376223  0.95519631     0.36800
H778        H  0.82789224  0.06268621  0.81588730     0.31200
H779        H  0.97071501  0.17944087  0.81589862     0.30100
H780        H  0.99637852  0.26483765  0.84870672     0.31800
H781        H  0.95654979  0.34018480  0.90602607     0.30800
H782        H  0.71536605  0.05544558  0.81717761     0.34800
H783        H  0.70898230  0.17723959  0.82062914     0.27500
H784        H  0.91383381  0.08280010  0.94597737     0.31700
H785        H  0.94324191  0.22849640  0.93895866     0.34600
H786        H  0.93356804  0.12254661  0.82144531     0.27200
H787        H  0.73232491  0.23228610  0.83042077     0.40000
H788        H  0.65007933  0.02997887  0.90488285     0.30100
H789        H  0.69228475  0.97485365  0.88580126     0.37700
H790        H  0.95766616  0.31860025  0.88081349     0.29600
H791        H  0.70753966  0.13549105  0.95559798     0.29600
H792        H  0.91247191  0.13090462  0.95416040     0.29900
C793        C  0.78172851  0.97620725  0.00814704    -0.14500
C794        C  0.73577281  0.96213621  0.01938619     0.07700
C795        C  0.70497224  0.97935765  0.00974677    -0.14500
C796        C  0.71937902  0.00930177  0.98923786    -0.14500
C797        C  0.76490621  0.02269211  0.97771103     0.07700
C798        C  0.79608812  0.00606652  0.98752082    -0.14500
H799        H  0.80644284  0.96378589  0.01514678     0.11700
H800        H  0.66957605  0.96978915  0.01806799     0.11700
H801        H  0.69448224  0.02157074  0.98231827     0.11700
H802        H  0.83148013  0.01576554  0.97916498     0.11700
C803        C  0.86100293  0.89225560  0.90158992    -0.14500
C804        C  0.83878199  0.85657790  0.88326524     0.07700
C805        C  0.80896203  0.86287395  0.86609057    -0.14500
C806        C  0.80201424  0.90414525  0.86702238    -0.14500
C807        C  0.82488227  0.94029250  0.88507814     0.07700
C808        C  0.85417764  0.93372510  0.90247340    -0.14500
H809        H  0.88396730  0.88839367  0.91514815     0.11700
H810        H  0.79097836  0.83597218  0.85177809     0.11700
H811        H  0.77937073  0.90809148  0.85331619     0.11700
H812        H  0.87234563  0.96090483  0.91666137     0.11700
C813        C  0.85884928  0.43704583  0.90036854    -0.14500
C814        C  0.83747603  0.45102988  0.88190456     0.07700
C815        C  0.81479407  0.41790718  0.86250808    -0.14500
C816        C  0.81345670  0.37184485  0.86167156    -0.14500
C817        C  0.83496145  0.35799361  0.88015938     0.07700
C818        C  0.85767334  0.39124963  0.89949665    -0.14500
H819        H  0.87663833  0.46151344  0.91554487     0.11700
H820        H  0.79785109  0.42743243  0.84795790     0.11700
H821        H  0.79562542  0.34716961  0.84656831     0.11700
H822        H  0.87455368  0.38192468  0.91415429     0.11700
C823        C  0.01984832  0.70359351  0.00802340    -0.14500
C824        C  0.03328104  0.74928421  0.01949831     0.07700
C825        C  0.01798461  0.78105773  0.00904295    -0.14500
C826        C  0.99021158  0.76761804  0.98773489    -0.14500
C827        C  0.97662828  0.72185861  0.97630176     0.07700
C828        C  0.99189291  0.69005916  0.98675862    -0.14500
H829        H  0.03089906  0.67812747  0.01546842     0.11700
H830        H  0.02761680  0.81658806  0.01727153     0.11700
H831        H  0.97911738  0.79306819  0.98031103     0.11700
H832        H  0.98224685  0.65453777  0.97851608     0.11700
C833        C  0.91894635  0.79354557  0.13161151    -0.14500
C834        C  0.95450809  0.81577648  0.11321452     0.07700
C835        C  0.94712514  0.84446106  0.09576146    -0.14500
C836        C  0.90536051  0.85081885  0.09671610    -0.14500
C837        C  0.86995172  0.82883367  0.11519870     0.07700
C838        C  0.87727036  0.80007449  0.13262332    -0.14500
H839        H  0.92352310  0.77147226  0.14542032     0.11700
H840        H  0.97375747  0.86228083  0.08134059     0.11700
H841        H  0.90096444  0.87314460  0.08297683     0.11700
H842        H  0.85070863  0.78241149  0.14708442     0.11700
C843        C  0.40726732  0.85326605  0.09552463    -0.14500
C844        C  0.37425421  0.83015923  0.11491171     0.07700
C845        C  0.38698900  0.80615251  0.13257520    -0.14500
C846        C  0.43178445  0.80548893  0.13096380    -0.14500
C847        C  0.46482155  0.82869753  0.11161811     0.07700
C848        C  0.45194780  0.85242782  0.09386774    -0.14500
H849        H  0.39853227  0.87185509  0.08144350     0.11700
H850        H  0.36233509  0.78774506  0.14761347     0.11700
H851        H  0.44042504  0.78664554  0.14494358     0.11700
H852        H  0.47650203  0.87066979  0.07877475     0.11700
C853        C  0.57599195  0.38007129  0.86360345    -0.14500
C854        C  0.54169097  0.37094803  0.88225798     0.07700
C855        C  0.55369602  0.40808883  0.89964469    -0.14500
C856        C  0.59887318  0.45327946  0.89843624    -0.14500
C857        C  0.63331992  0.46242058  0.87985383     0.07700
C858        C  0.62136826  0.42528073  0.86244650    -0.14500
H859        H  0.56799321  0.35216620  0.84991426     0.11700
H860        H  0.52817736  0.40235074  0.91420893     0.11700
H861        H  0.60689821  0.48090426  0.91228177     0.11700
H862        H  0.64711843  0.43098936  0.84799895     0.11700
C863        C  0.13212641  0.92716972  0.86543770    -0.14500
C864        C  0.13950143  0.96308956  0.88293307     0.07700
C865        C  0.10435708  0.94960662  0.90151698    -0.14500
C866        C  0.06231506  0.90160846  0.90228835    -0.14500
C867        C  0.05455763  0.86598289  0.88452942     0.07700
C868        C  0.09020668  0.87920363  0.86624341    -0.14500
H869        H  0.15857769  0.93613410  0.85093004     0.11700
H870        H  0.10903913  0.97621415  0.91537129     0.11700
H871        H  0.03565014  0.89263781  0.91670130     0.11700
H872        H  0.08536582  0.85277419  0.85227157     0.11700
C873        C  0.58429999  0.12325072  0.89919942    -0.14500
C874        C  0.62233510  0.14959841  0.88239603     0.07700
C875        C  0.61409732  0.17565560  0.86381905    -0.14500
C876        C  0.56902260  0.17581455  0.86225943    -0.14500
C877        C  0.53116224  0.14984708  0.87921862     0.07700
C878        C  0.53917991  0.12317720  0.89756996    -0.14500
H879        H  0.58931490  0.10263048  0.91361261     0.11700
H880        H  0.64270151  0.19645941  0.85054430     0.11700
H881        H  0.56415136  0.19679900  0.84797996     0.11700
H882        H  0.51085195  0.10274103  0.91101806     0.11700
C883        C  0.09086382  0.13543046  0.89865964    -0.14500
C884        C  0.12738710  0.16648863  0.88185499     0.07700
C885        C  0.11450695  0.19108084  0.86449145    -0.14500
C886        C  0.06633710  0.18468888  0.86391733    -0.14500
C887        C  0.02985528  0.15369729  0.88075072     0.07700
C888        C  0.04276129  0.12916483  0.89813088    -0.14500
H889        H  0.09929146  0.11566379  0.91225394     0.11700
H890        H  0.14153179  0.21509587  0.85122939     0.11700
H891        H  0.05782278  0.20433687  0.85029461     0.11700
H892        H  0.01567290  0.10497495  0.91133023     0.11700
C893        C  0.96161379  0.09179035  0.09655193    -0.14500
C894        C  0.97409342  0.12784339  0.11465143     0.07700
C895        C  0.93681161  0.12202232  0.13097051    -0.14500
C896        C  0.88838953  0.08081997  0.12939284    -0.14500
C897        C  0.87623388  0.04428812  0.11157831     0.07700
C898        C  0.91330213  0.05051864  0.09504009    -0.14500
H899        H  0.98928606  0.09516744  0.08361349     0.11700
H900        H  0.94498987  0.14927821  0.14502428     0.11700
H901        H  0.86079812  0.07710934  0.14246162     0.11700
H902        H  0.90525598  0.02312963  0.08106561     0.11700
C903        C  0.39510458  0.56060970  0.13390709    -0.14500
C904        C  0.38282535  0.52974898  0.11347432     0.07700
C905        C  0.41635940  0.54584660  0.09415253    -0.14500
C906        C  0.46087983  0.59178619  0.09517139    -0.14500
C907        C  0.47299794  0.62281841  0.11553064     0.07700
C908        C  0.43960805  0.60669079  0.13489318    -0.14500
H909        H  0.37021491  0.54933922  0.14919531     0.11700
H910        H  0.40812413  0.52316710  0.07815392     0.11700
H911        H  0.48564065  0.60312580  0.07981855     0.11700
H912        H  0.44787699  0.62955998  0.15082434     0.11700
C913        C  0.19619201  0.60730177  0.13377109    -0.14500
C914        C  0.17029896  0.61608091  0.11531531     0.07700
C915        C  0.14466848  0.57870266  0.09810350    -0.14500
C916        C  0.14480820  0.53365010  0.09924370    -0.14500
C917        C  0.17074855  0.52474206  0.11759711     0.07700
C918        C  0.19646649  0.56208615  0.13487831    -0.14500
H919        H  0.21649898  0.63544815  0.14732048     0.11700
H920        H  0.12424702  0.58409613  0.08372853     0.11700
H921        H  0.12455400  0.50581432  0.08556298     0.11700
H922        H  0.21697321  0.55652490  0.14915585     0.11700
C923        C  0.20136717  0.10299189  0.13037312    -0.14500
C924        C  0.17954485  0.11675270  0.11199939     0.07700
C925        C  0.15191087  0.08151854  0.09405906    -0.14500
C926        C  0.14595189  0.03349347  0.09458631    -0.14500
C927        C  0.16724592  0.01954889  0.11315057     0.07700
C928        C  0.19522587  0.05498588  0.13096629    -0.14500
H929        H  0.22262565  0.12905217  0.14454086     0.11700
H930        H  0.13463553  0.09093477  0.07961576     0.11700
H931        H  0.12438883  0.00724430  0.08053895     0.11700
H932        H  0.21239783  0.04568892  0.14550424     0.11700
C933        C  0.20956305  0.21283266  0.00850579    -0.14500
C934        C  0.23998970  0.26036434  0.01881450     0.07700
C935        C  0.28568008  0.29348569  0.00754782    -0.14500
C936        C  0.30069941  0.27947943  0.98670236    -0.14500
C937        C  0.27036246  0.23202539  0.97636153     0.07700
C938        C  0.22449123  0.19890515  0.98751077    -0.14500
H939        H  0.17418071  0.18630734  0.01665254     0.11700
H940        H  0.31023332  0.33038382  0.01490446     0.11700
H941        H  0.33613227  0.30609746  0.97862758     0.11700
H942        H  0.20016377  0.16200406  0.98010089     0.11700
C943        C  0.83856223  0.14473026  0.73611938    -0.14500
C944        C  0.81210500  0.16319226  0.72320542     0.07700
C945        C  0.79330284  0.19000747  0.73565544    -0.14500
C946        C  0.80002734  0.19719213  0.76056271    -0.14500
C947        C  0.82706311  0.17907864  0.77334988     0.07700
C948        C  0.84626457  0.15289330  0.76075235    -0.14500
H949        H  0.85425423  0.12463638  0.72708199     0.11700
H950        H  0.77310047  0.20505319  0.72617182     0.11700
H951        H  0.78453411  0.21728143  0.76976687     0.11700
H952        H  0.86669985  0.13784977  0.77003200     0.11700
C953        C  0.99012309  0.19894036  0.50922636    -0.14500
C954        C  0.97715015  0.23204786  0.52018695     0.07700
C955        C  0.99327543  0.27893956  0.50941748    -0.14500
C956        C  0.02144020  0.29233553  0.48829764    -0.14500
C957        C  0.03423583  0.25920629  0.47724115     0.07700
C958        C  0.01821830  0.21230123  0.48801119    -0.14500
H959        H  0.97831946  0.16245274  0.51695514     0.11700
H960        H  0.98415286  0.30548017  0.51729504     0.11700
H961        H  0.03306606  0.32881570  0.48060540     0.11700
H962        H  0.02738461  0.18584203  0.48007377     0.11700
C963        C  0.20416737  0.39822481  0.23710089    -0.14500
C964        C  0.18225883  0.35311445  0.22403841     0.07700
C965        C  0.17031702  0.30851279  0.23617608    -0.14500
C966        C  0.17982103  0.30879368  0.26069213    -0.14500
C967        C  0.20062958  0.35356295  0.27398608     0.07700
C968        C  0.21260921  0.39834913  0.26188287    -0.14500
H969        H  0.21406000  0.43323889  0.22822333     0.11700
H970        H  0.15413871  0.27322624  0.22660672     0.11700
H971        H  0.16958486  0.27348747  0.26935692     0.11700
H972        H  0.22836074  0.43344632  0.27157978     0.11700
C973        C  0.41112966  0.20112831  0.73608167    -0.14500
C974        C  0.36547135  0.18228404  0.72367849     0.07700
C975        C  0.32051191  0.15457402  0.73642054    -0.14500
C976        C  0.32098975  0.14556587  0.76087455    -0.14500
C977        C  0.36641516  0.16475069  0.77343354     0.07700
C978        C  0.41159335  0.19305011  0.76082415    -0.14500
H979        H  0.44638267  0.22226544  0.72668189     0.11700
H980        H  0.28471004  0.13880600  0.72737090     0.11700
H981        H  0.28549136  0.12425684  0.77005994     0.11700
H982        H  0.44718431  0.20863773  0.77004698     0.11700
C983        C  0.55442026  0.12833613  0.59775187    -0.14500
C984        C  0.54528666  0.15831678  0.61348092     0.07700
C985        C  0.58228568  0.18803368  0.63038627    -0.14500
C986        C  0.62737283  0.18756645  0.63154565    -0.14500
C987        C  0.63631609  0.15723784  0.61587848     0.07700
C988        C  0.59922298  0.12766083  0.59898403    -0.14500
H989        H  0.52663036  0.10477977  0.58465266     0.11700
H990        H  0.57648698  0.21181158  0.64269535     0.11700
H991        H  0.65526711  0.21114634  0.64459687     0.11700
H992        H  0.60470606  0.10381691  0.58658748     0.11700
C993        C  0.06119501  0.13840255  0.59487635    -0.14500
C994        C  0.05343372  0.16610549  0.61271101     0.07700
C995        C  0.08844119  0.18731589  0.63136788    -0.14500
C996        C  0.13005205  0.18084622  0.63225004    -0.14500
C997        C  0.13786217  0.15314119  0.61444152     0.07700
C998        C  0.10298991  0.13209007  0.59570243    -0.14500
H999        H  0.03488280  0.12140740  0.58026147     0.11700
H1000       H  0.08343564  0.20846102  0.64550682     0.11700
H1001       H  0.15610122  0.19763703  0.64697903     0.11700
H1002       H  0.10785616  0.11060898  0.58168858     0.11700
C1003       C  0.21265270  0.97473187  0.48824052    -0.14500
C1004       C  0.24699999  0.96541782  0.47590654     0.07700
C1005       C  0.29557418  0.98532849  0.48536872    -0.14500
C1006       C  0.30928934  0.01329594  0.50662305    -0.14500
C1007       C  0.27482002  0.02213167  0.51913471     0.07700
C1008       C  0.22631231  0.00255302  0.50958070    -0.14500
H1009       H  0.17487795  0.95998670  0.48156714     0.11700
H1010       H  0.32317688  0.97929136  0.47634913     0.11700
H1011       H  0.34705427  0.02789292  0.51327513     0.11700
H1012       H  0.19871025  0.00855809  0.51862484     0.11700
C1013       C  0.15318376  0.04761694  0.40061026    -0.14500
C1014       C  0.18548935  0.04273870  0.38443310     0.07700
C1015       C  0.21329154  0.08179471  0.36820375    -0.14500
C1016       C  0.20800181  0.12418490  0.36776907    -0.14500
C1017       C  0.17487204  0.12855383  0.38359590     0.07700
C1018       C  0.14799129  0.09005599  0.40021303    -0.14500
H1019       H  0.13119870  0.01827614  0.41340112     0.11700
H1020       H  0.23861572  0.07935564  0.35556931     0.11700
H1021       H  0.22966437  0.15337439  0.35485719     0.11700
H1022       H  0.12226975  0.09226583  0.41267415     0.09300
C1023       C  0.18700255  0.56130093  0.36229421    -0.14500
C1024       C  0.16656046  0.52932034  0.38226641     0.07700
C1025       C  0.14752166  0.54441403  0.40129922    -0.14500
C1026       C  0.14896749  0.59032447  0.40046075    -0.14500
C1027       C  0.16959295  0.62247836  0.38058182     0.07700
C1028       C  0.18856535  0.60741373  0.36147768    -0.14500
H1029       H  0.20210096  0.55089884  0.34728084     0.11700
H1030       H  0.13157872  0.52084585  0.41693273     0.11700
H1031       H  0.13403969  0.60065401  0.41557363     0.11700
H1032       H  0.20466364  0.63120855  0.34592545     0.11700
C1033       C  0.20707441  0.78717064  0.26070309    -0.14500
C1034       C  0.17554535  0.80036783  0.27304662     0.07700
C1035       C  0.15268634  0.82262245  0.26002730    -0.14500
C1036       C  0.16164935  0.83218655  0.23549886    -0.14500
C1037       C  0.19303035  0.81899507  0.22310739     0.07700
C1038       C  0.21518876  0.79577638  0.23593813    -0.14500
H1039       H  0.22545252  0.77018139  0.27018347     0.11700
H1040       H  0.12856908  0.83375465  0.26890183     0.11700
H1041       H  0.14324159  0.84928141  0.22612209     0.11700
H1042       H  0.23919535  0.78475298  0.22687189     0.11700
C1043       C  0.80005541  0.58472941  0.73610514    -0.14500
C1044       C  0.82807333  0.63012488  0.72355173     0.07700
C1045       C  0.84548963  0.67540132  0.73608030    -0.14500
C1046       C  0.83541793  0.67546342  0.76048497    -0.14500
C1047       C  0.80846414  0.63025451  0.77324379     0.07700
C1048       C  0.79095488  0.58478835  0.76077534    -0.14500
H1049       H  0.78565589  0.54920538  0.72690229     0.11700
H1050       H  0.86636083  0.71102447  0.72691191     0.11700
H1051       H  0.85005542  0.71119780  0.76952065     0.11700
H1052       H  0.77034807  0.54932687  0.77009597     0.11700
C1053       C  0.61768076  0.41629611  0.63288633    -0.14500
C1054       C  0.62471662  0.45233759  0.61543728     0.07700
C1055       C  0.58586975  0.44183876  0.59932127    -0.14500
C1056       C  0.54095193  0.39642616  0.60059627    -0.14500
C1057       C  0.53382597  0.36019363  0.61793621     0.07700
C1058       C  0.57271150  0.37064255  0.63410084    -0.14500
H1059       H  0.64711508  0.42313051  0.64550284     0.11700
H1060       H  0.59001098  0.46883379  0.58577806     0.11700
H1061       H  0.51182352  0.38971970  0.58782085     0.11700
H1062       H  0.56863499  0.34344011  0.64751450     0.11700
C1063       C  0.04699868  0.88942540  0.59599043    -0.14500
C1064       C  0.03521525  0.85120723  0.61280442     0.07700
C1065       C  0.07270065  0.85577598  0.62870864    -0.14500
C1066       C  0.12048160  0.89817775  0.62821331    -0.14500
C1067       C  0.13186462  0.93705718  0.61183593     0.07700
C1068       C  0.09468510  0.93189313  0.59555668    -0.14500
H1069       H  0.01908104  0.88708721  0.58346875     0.11700
H1070       H  0.06502405  0.82678890  0.64176572     0.11700
H1071       H  0.14818326  0.90083229  0.64095676     0.11700
H1072       H  0.10209662  0.96104710  0.58264467     0.11700
C1073       C  0.85197241  0.44393923  0.59509016    -0.14500
C1074       C  0.83654357  0.45775716  0.61608792     0.07700
C1075       C  0.82310244  0.42630019  0.63617349    -0.14500
C1076       C  0.82573422  0.38233215  0.63534592    -0.14500
C1077       C  0.84154087  0.36877651  0.61435515     0.07700
C1078       C  0.85447380  0.40006035  0.59424094    -0.14500
H1079       H  0.86207063  0.46702875  0.57914723     0.11700
H1080       H  0.81111312  0.43590434  0.65257598     0.11700
H1081       H  0.81536023  0.35899144  0.65120330     0.11700
H1082       H  0.86630837  0.39058085  0.57775455     0.11700
C1083       C  0.81581343  0.92918472  0.63287900    -0.14500
C1084       C  0.84176807  0.96382976  0.61447231     0.07700
C1085       C  0.86112956  0.94918696  0.59532633    -0.14500
C1086       C  0.85508612  0.90114858  0.59476157    -0.14500
C1087       C  0.82935518  0.86667845  0.61327042     0.07700
C1088       C  0.80957893  0.88117742  0.63225055    -0.14500
H1089       H  0.80023836  0.93907605  0.64788398     0.11700
H1090       H  0.88107055  0.97482354  0.58080086     0.11700
H1091       H  0.87069748  0.89108651  0.57983046     0.11700
H1092       H  0.78984105  0.85567632  0.64684952     0.11700
C1093       C  0.68565921  0.84840610  0.25942796    -0.14500
C1094       C  0.64106586  0.82350573  0.27275555     0.07700
C1095       C  0.59605171  0.79195810  0.26054271    -0.14500
C1096       C  0.59596673  0.78508029  0.23563923    -0.14500
C1097       C  0.64106968  0.80848958  0.22263118     0.07700
C1098       C  0.68570503  0.84065778  0.23479612    -0.14500
H1099       H  0.72106032  0.87286945  0.26814328     0.11700
H1100       H  0.56103434  0.77227300  0.27025393     0.11700
H1101       H  0.56090950  0.76057126  0.22666042     0.11700
H1102       H  0.72090763  0.86014184  0.22520237     0.11700
C1103       C  0.78220421  0.78266536  0.48778374    -0.14500
C1104       C  0.73474024  0.75180758  0.47752061     0.07700
C1105       C  0.70139522  0.70676217  0.48921310    -0.14500
C1106       C  0.71527404  0.69264786  0.51038050    -0.14500
C1107       C  0.76289497  0.72317294  0.52051847     0.07700
C1108       C  0.79605970  0.76858413  0.50904100    -0.14500
H1109       H  0.80882233  0.81769536  0.47935902     0.11700
H1110       H  0.66445113  0.68208145  0.48196448     0.11700
H1111       H  0.68855294  0.65760662  0.51876619     0.11700
H1112       H  0.83298840  0.79311529  0.51634453     0.11700
C1113       C  0.90916694  0.02962640  0.39818922    -0.14500
C1114       C  0.87102094  0.01798044  0.38138255     0.07700
C1115       C  0.87614401  0.05521299  0.36514418    -0.14500
C1116       C  0.91849515  0.10295207  0.36565417    -0.14500
C1117       C  0.95681139  0.11454247  0.38236173     0.07700
C1118       C  0.95160065  0.07733461  0.39865436    -0.14500
H1119       H  0.90644131  0.00181678  0.41090921     0.11700
H1120       H  0.84731039  0.04760209  0.35202865     0.11700
H1121       H  0.92123734  0.13067220  0.35287656     0.11700
H1122       H  0.98045456  0.08489630  0.41174689     0.11700
C1123       C  0.45519481  0.57577653  0.40040990    -0.14500
C1124       C  0.46682914  0.61201737  0.38255331     0.07700
C1125       C  0.43225678  0.60203955  0.36395396    -0.14500
C1126       C  0.38687571  0.55686520  0.36330995    -0.14500
C1127       C  0.37518781  0.52070408  0.38121374     0.07700
C1128       C  0.40998521  0.53060171  0.39971823    -0.14500
H1129       H  0.48101806  0.58221559  0.41494129     0.11700
H1130       H  0.44001650  0.62928866  0.34994429     0.11700
H1131       H  0.36084387  0.55048168  0.34889275     0.11700
H1132       H  0.40220359  0.50364037  0.41388401     0.11700
C1133       C  0.91627369  0.84551141  0.40087809    -0.14500
C1134       C  0.87957244  0.81427845  0.38419613     0.07700
C1135       C  0.89201081  0.78923269  0.36692296    -0.14500
C1136       C  0.94003814  0.79556742  0.36620322    -0.14500
C1137       C  0.97683805  0.82698446  0.38278918     0.07700
C1138       C  0.96433745  0.85173852  0.40020319    -0.14500
H1139       H  0.90806241  0.86556067  0.41439498     0.11700
H1140       H  0.86482311  0.76509306  0.35374643     0.11700
H1141       H  0.94824169  0.77571889  0.35257252     0.11700
H1142       H  0.99173542  0.87618318  0.41323165     0.11700
C1143       C  0.39292772  0.80589834  0.36226084    -0.14500
C1144       C  0.38320565  0.82947549  0.38150001     0.07700
C1145       C  0.41912056  0.85156660  0.39967786    -0.14500
C1146       C  0.46336903  0.84977666  0.39879458    -0.14500
C1147       C  0.47294373  0.82573485  0.37972623     0.07700
C1148       C  0.43727048  0.80399000  0.36140210    -0.14500
H1149       H  0.36606969  0.78845639  0.34789638     0.11700
H1150       H  0.41303162  0.87011972  0.41469341     0.11700
H1151       H  0.48998883  0.86712344  0.41326524     0.11700
H1152       H  0.44344893  0.78530481  0.34647441     0.11700
loop_ 
_geom_bond_atom_site_label_1 
_geom_bond_atom_site_label_2 
_geom_bond_distance 
_geom_bond_site_symmetry_2 
_ccdc_geom_bond_type 
Zr1           O2   2.439       .  S
Zr1           O3   2.412       .  S
Zr1           O4   2.443       .  S
Zr1           O7   2.426       .  S
Zr1           O9   2.380       .  S
Zr1          O10   2.386       .  S
Zr1          O11   2.396       .  S
Zr1          O12   2.396       .  S
O2           H58   0.990       .  S
O2           H66   0.990       .  S
O3           C23   1.281       .  A
O4           C25   1.287       .  A
O5          Zr15   2.421       .  S
O5           C24   1.282       .  A
O6          Zr14   2.430       .  S
O6           C25   1.286       .  A
O7           C24   1.285       .  A
O8          Zr16   2.436       .  S
O8           C23   1.285       .  A
O9          Zr14   2.391       .  S
O9          Zr16   2.367       .  S
O10         Zr15   2.391       .  S
O10         Zr16   2.375       .  S
O10          H45   0.966       .  S
O11         Zr14   2.396       .  S
O11         Zr31   2.391       .  S
O11          H48   0.966       .  S
O12         Zr15   2.391       .  S
O12         Zr31   2.382       .  S
Zr13         O38   2.443       .  S
Zr13         O32   2.459       .  S
Zr13         O40   2.452       .  S
Zr13         O28   2.422       .  S
Zr13         O19   2.396       .  S
Zr13         O20   2.423       .  S
Zr13         O21   2.380       .  S
Zr13         O22   2.383       .  S
Zr14         O33   2.436       .  S
Zr14         O26   2.436       .  S
Zr14         O27   2.421       .  S
Zr14         O20   2.403       .  S
Zr14         O21   2.391       .  S
Zr15         O17   2.436       .  S
Zr15         O39   2.441       .  S
Zr15         O41   2.435       .  S
Zr15         O19   2.379       .  S
Zr15         O22   2.392       .  S
Zr16         O42   2.435       .  S
Zr16         O43   2.434       .  S
Zr16         O18   2.437       .  S
Zr16         O19   2.390       .  S
Zr16         O20   2.407       .  S
O17          H54   0.990       .  S
O18          H49   0.990       .  S
O18          H63   0.990       .  S
O20          H46   0.966       .  S
O21         Zr31   2.376       .  S
O22         Zr31   2.395       .  S
O22          H47   0.966       .  S
C23        C1134   1.481       .  S
C24        C1114   1.479   1_565  S
C25        C1104   1.489       .  S
O26          H62   0.990       .  S
O27          C29   1.283       .  A
O28          C29   1.281       .  A
C29        C1124   1.476       .  S
O30         Zr31   2.435       .  S
O30          H59   0.990       .  S
Zr31         O34   2.436       .  S
Zr31         O35   2.437       .  S
Zr31         O36   2.388       .  S
O32          C37   1.288       .  A
O33          H50   0.990       .  S
O33          H65   0.990       .  S
O34          H51   0.990       .  S
O35          H55   0.990       .  S
O35          H64   0.990       .  S
O36          C37   1.275       .  A
C37        C1147   1.483       .  S
O38          H57   0.991       .  S
O38          H61   0.990       .  S
O39          H53   0.990       .  S
O39          H60   0.990       .  S
O40          C44   1.287       .  A
O41          C44   1.286       .  A
O42          H52   0.990       .  S
O43          H56   0.990       .  S
C44        C1094   1.489       .  S
Zr67         O68   2.439       .  S
Zr67         O69   2.412       .  S
Zr67         O70   2.442       .  S
Zr67         O73   2.433       .  S
Zr67         O75   2.381       .  S
Zr67         O76   2.384       .  S
Zr67         O77   2.399       .  S
Zr67         O78   2.391       .  S
O68         H124   0.991       .  S
O68         H132   0.990       .  S
O69          C89   1.280       .  A
O70          C91   1.287       .  A
O71         Zr81   2.422       .  S
O71          C90   1.283       .  A
O72         Zr80   2.429       .  S
O72          C91   1.285       .  A
O73          C90   1.286       .  A
O74         Zr82   2.431       .  S
O74          C89   1.284       .  A
O75         Zr80   2.391       .  S
O75         Zr82   2.363       .  S
O76         Zr81   2.396       .  S
O76         Zr82   2.382       .  S
O76         H111   0.965       .  S
O77         Zr80   2.400       .  S
O77         Zr97   2.391       .  S
O77         H114   0.966       .  S
O78         Zr81   2.395       .  S
O78         Zr97   2.379       .  S
Zr79        O104   2.444       .  S
Zr79         O98   2.456       .  S
Zr79        O106   2.450       .  S
Zr79         O94   2.411       .  S
Zr79         O85   2.386       .  S
Zr79         O86   2.426       .  S
Zr79         O87   2.382       .  S
Zr79         O88   2.382       .  S
Zr80         O99   2.436       .  S
Zr80         O92   2.435       .  S
Zr80         O93   2.438       .  S
Zr80         O86   2.397       .  S
Zr80         O87   2.389       .  S
Zr81         O83   2.436       .  S
Zr81        O105   2.439       .  S
Zr81        O107   2.450       .  S
Zr81         O85   2.367       .  S
Zr81         O88   2.396       .  S
Zr82        O108   2.435       .  S
Zr82        O109   2.434       .  S
Zr82         O84   2.437       .  S
Zr82         O85   2.380       .  S
Zr82         O86   2.411       .  S
O83         H120   0.990       .  S
O84         H115   0.990       .  S
O84         H129   0.990       .  S
O86         H112   0.966       .  S
O87         Zr97   2.379       .  S
O88         Zr97   2.403       .  S
O88         H113   0.966       .  S
C89        C1087   1.478       .  S
C90        C1064   1.481   1_655  S
C91        C1107   1.488       .  S
O92         H128   0.990       .  S
O93          C95   1.286       .  A
O94          C95   1.279       .  A
C95        C1054   1.478       .  S
O96         Zr97   2.435       .  S
O96         H125   0.990       .  S
Zr97        O100   2.437       .  S
Zr97        O101   2.437       .  S
Zr97        O102   2.388       .  S
O98         C103   1.287       .  A
O99         H116   0.990       .  S
O99         H131   0.990       .  S
O100        H117   0.991       .  S
O101        H121   0.990       .  S
O101        H130   0.989       .  S
O102        C103   1.276       .  A
C103       C1074   1.479       .  S
O104        H123   0.991       .  S
O104        H127   0.990       .  S
O105        H119   0.990       .  S
O105        H126   0.990       .  S
O106        C110   1.286       .  A
O107        C110   1.288       .  A
O108        H118   0.990       .  S
O109        H122   0.990       .  S
C110       C1044   1.488       .  S
Zr133       O134   2.439       .  S
Zr133       O135   2.409       .  S
Zr133       O136   2.442       .  S
Zr133       O139   2.431       .  S
Zr133       O141   2.382       .  S
Zr133       O142   2.387       .  S
Zr133       O143   2.398       .  S
Zr133       O144   2.395       .  S
O134        H190   0.991       .  S
O134        H198   0.990       .  S
O135        C155   1.280       .  A
O136        C157   1.286       .  A
O137       Zr147   2.421       .  S
O137        C156   1.282       .  A
O138       Zr146   2.445       .  S
O138        C157   1.288       .  A
O139        C156   1.286       .  A
O140       Zr148   2.434       .  S
O140        C155   1.285       .  A
O141       Zr146   2.389       .  S
O141       Zr148   2.368       .  S
O142       Zr147   2.393       .  S
O142       Zr148   2.378       .  S
O142        H177   0.966       .  S
O143       Zr146   2.399       .  S
O143       Zr163   2.398       .  S
O143        H180   0.966       .  S
O144       Zr147   2.391       .  S
O144       Zr163   2.381       .  S
Zr145       O170   2.443       .  S
Zr145       O164   2.452       .  S
Zr145       O172   2.459       .  S
Zr145       O160   2.421       .  S
Zr145       O151   2.386       .  S
Zr145       O152   2.427       .  S
Zr145       O153   2.384       .  S
Zr145       O154   2.384       .  S
Zr146       O165   2.434       .  S
Zr146       O158   2.435       .  S
Zr146       O159   2.439       .  S
Zr146       O152   2.403       .  S
Zr146       O153   2.395       .  S
Zr147       O149   2.437       .  S
Zr147       O171   2.439       .  S
Zr147       O173   2.443       .  S
Zr147       O151   2.370       .  S
Zr147       O154   2.394       .  S
Zr148       O174   2.436       .  S
Zr148       O175   2.436       .  S
Zr148       O150   2.435       .  S
Zr148       O151   2.377       .  S
Zr148       O152   2.408       .  S
O149        H186   0.990       .  S
O150        H181   0.990   1_565  S
O150        H195   0.990   1_565  S
O152        H178   0.966       .  S
O153       Zr163   2.382       .  S
O154       Zr163   2.396       .  S
O154        H179   0.965       .  S
C155       C1014   1.479   1_565  S
C156       C1137   1.481   1_455  S
C157       C1004   1.494       .  S
O158        H194   0.990       .  S
O159        C161   1.286       .  A
O160        C161   1.280       .  A
C161       C1144   1.483       .  S
O162       Zr163   2.436       .  S
O162        H191   0.990       .  S
Zr163       O166   2.436       .  S
Zr163       O167   2.439       .  S
Zr163       O168   2.392       .  S
O164        C169   1.286       .  A
O165        H182   0.990       .  S
O165        H197   0.990       .  S
O166        H183   0.990       .  S
O167        H187   0.990       .  S
O167        H196   0.990       .  S
O168        C169   1.276       .  A
C169       C1027   1.482       .  S
O170        H189   0.991       .  S
O170        H193   0.990       .  S
O171        H185   0.990       .  S
O171        H192   0.990       .  S
O172        C176   1.289       .  A
O173        C176   1.287       .  A
O174        H184   0.990       .  S
O175        H188   0.991       .  S
C176       C1034   1.491       .  S
Zr199       O200   2.439       .  S
Zr199       O201   2.412       .  S
Zr199       O202   2.448       .  S
Zr199       O205   2.434       .  S
Zr199       O207   2.380       .  S
Zr199       O208   2.387       .  S
Zr199       O209   2.396       .  S
Zr199       O210   2.394       .  S
O200        H256   0.990       .  S
O200        H264   0.990       .  S
O201        C221   1.281   1_545  A
O202        C223   1.288       .  A
O203       Zr213   2.419       .  S
O203        C222   1.283       .  A
O204       Zr212   2.436       .  S
O204        C223   1.286       .  A
O205        C222   1.286       .  A
O206       Zr214   2.439   1_565  S
O206        C221   1.286       .  A
O207       Zr212   2.390       .  S
O207       Zr214   2.367       .  S
O208       Zr213   2.393       .  S
O208       Zr214   2.380       .  S
O208        H243   0.966       .  S
O209       Zr212   2.398       .  S
O209       Zr229   2.394       .  S
O209        H246   0.966       .  S
O210       Zr213   2.388       .  S
O210       Zr229   2.379       .  S
Zr211       O236   2.443       .  S
Zr211       O230   2.447       .  S
Zr211       O238   2.447       .  S
Zr211       O226   2.423       .  S
Zr211       O217   2.391       .  S
Zr211       O218   2.420       .  S
Zr211       O219   2.381       .  S
Zr211       O220   2.384       .  S
Zr212       O231   2.436       .  S
Zr212       O224   2.435       .  S
Zr212       O225   2.432       .  S
Zr212       O218   2.400       .  S
Zr212       O219   2.392       .  S
Zr213       O215   2.437       .  S
Zr213       O237   2.440       .  S
Zr213       O239   2.434       .  S
Zr213       O217   2.376       .  S
Zr213       O220   2.392       .  S
Zr214       O240   2.435       .  S
Zr214       O241   2.436       .  S
Zr214       O216   2.436   1_545  S
Zr214       O217   2.384       .  S
Zr214       O218   2.408       .  S
O215        H252   0.990       .  S
O216        H247   0.990       .  S
O216        H261   0.990       .  S
O218        H244   0.966       .  S
O219       Zr229   2.378       .  S
O220       Zr229   2.395       .  S
O220        H245   0.965       .  S
C221       C1067   1.482       .  S
C222        C997   1.482       .  S
C223       C1007   1.495       .  S
O224        H260   0.990       .  S
O225        C227   1.285       .  A
O226        C227   1.281       .  A
C227        C984   1.481       .  S
O228       Zr229   2.435       .  S
O228        H257   0.990       .  S
Zr229       O232   2.435       .  S
Zr229       O233   2.439       .  S
Zr229       O234   2.395       .  S
O230        C235   1.286       .  A
O231        H248   0.990       .  S
O231        H263   0.990       .  S
O232        H249   0.990       .  S
O233        H253   0.990       .  S
O233        H262   0.990       .  S
O234        C235   1.277       .  A
C235       C1057   1.480       .  S
O236        H255   0.991       .  S
O236        H259   0.990       .  S
O237        H251   0.990       .  S
O237        H258   0.990       .  S
O238        C242   1.286       .  A
O239        C242   1.286       .  A
O240        H250   0.990       .  S
O241        H254   0.990       .  S
C242        C974   1.483       .  S
Zr265       O266   2.439       .  S
Zr265       O267   2.413       .  S
Zr265       O268   2.451       .  S
Zr265       O271   2.434       .  S
Zr265       O273   2.380       .  S
Zr265       O274   2.386       .  S
Zr265       O275   2.396       .  S
Zr265       O276   2.394       .  S
O266        H322   0.990       .  S
O266        H330   0.990       .  S
O267        C287   1.281       .  A
O268        C289   1.288       .  A
O269       Zr279   2.418       .  S
O269        C288   1.282       .  A
O270       Zr278   2.426       .  S
O270        C289   1.285       .  A
O271        C288   1.287       .  A
O272       Zr280   2.435       .  S
O272        C287   1.285       .  A
O273       Zr278   2.390       .  S
O273       Zr280   2.366       .  S
O274       Zr279   2.393       .  S
O274       Zr280   2.380       .  S
O274        H309   0.965       .  S
O275       Zr278   2.397       .  S
O275       Zr295   2.387       .  S
O275        H312   0.966       .  S
O276       Zr279   2.394       .  S
O276       Zr295   2.380       .  S
Zr277       O302   2.444       .  S
Zr277       O296   2.452       .  S
Zr277       O304   2.463       .  S
Zr277       O292   2.415       .  S
Zr277       O283   2.390       .  S
Zr277       O284   2.422       .  S
Zr277       O285   2.381       .  S
Zr277       O286   2.380       .  S
Zr278       O297   2.436       .  S
Zr278       O290   2.434       .  S
Zr278       O291   2.438       .  S
Zr278       O284   2.391       .  S
Zr278       O285   2.387       .  S
Zr279       O281   2.437       .  S
Zr279       O303   2.438       .  S
Zr279       O305   2.439       .  S
Zr279       O283   2.378       .  S
Zr279       O286   2.390       .  S
Zr280       O306   2.435       .  S
Zr280       O307   2.436       .  S
Zr280       O282   2.438   1_455  S
Zr280       O283   2.388       .  S
Zr280       O284   2.407       .  S
O281        H318   0.990       .  S
O282        H313   0.990       .  S
O282        H327   0.990       .  S
O284        H310   0.966       .  S
O285       Zr295   2.379       .  S
O286       Zr295   2.400       .  S
O286        H311   0.965       .  S
C287       C1117   1.480   1_455  S
C288       C1017   1.479       .  S
C289        C957   1.490       .  S
O290        H326   0.990       .  S
O291        C293   1.287       .  A
O292        C293   1.280       .  A
C293       C1024   1.481       .  S
O294       Zr295   2.439       .  S
O294        H323   0.990       .  S
Zr295       O298   2.438       .  S
Zr295       O299   2.439       .  S
Zr295       O300   2.384       .  S
O296        C301   1.287       .  A
O297        H314   0.990       .  S
O297        H329   0.990       .  S
O298        H315   0.990       .  S
O299        H319   0.990       .  S
O299        H328   0.990       .  S
O300        C301   1.275       .  A
C301       C1127   1.477       .  S
O302        H321   0.990       .  S
O302        H325   0.991       .  S
O303        H317   0.990       .  S
O303        H324   0.990       .  S
O304        C308   1.288       .  A
O305        C308   1.286       .  A
O306        H316   0.990       .  S
O307        H320   0.990       .  S
C308        C967   1.492       .  S
Zr331       O332   2.440       .  S
Zr331       O333   2.414       .  S
Zr331       O334   2.436       .  S
Zr331       O337   2.426       .  S
Zr331       O339   2.381       .  S
Zr331       O340   2.386       .  S
Zr331       O341   2.397       .  S
Zr331       O342   2.394       .  S
O332        H388   0.990       .  S
O332        H396   0.990       .  S
O333        C353   1.282   1_655  A
O334        C355   1.285       .  A
O335       Zr345   2.422       .  S
O335        C354   1.283       .  A
O336       Zr344   2.440       .  S
O336        C355   1.287       .  A
O337        C354   1.285       .  A
O338       Zr346   2.440   1_455  S
O338        C353   1.287       .  A
O339       Zr344   2.391       .  S
O339       Zr346   2.367       .  S
O340       Zr345   2.389       .  S
O340       Zr346   2.376       .  S
O340        H375   0.966       .  S
O341       Zr344   2.397       .  S
O341       Zr361   2.396       .  S
O341        H378   0.967       .  S
O342       Zr345   2.392       .  S
O342       Zr361   2.381       .  S
Zr343       O368   2.443       .  S
Zr343       O362   2.455       .  S
Zr343       O370   2.450       .  S
Zr343       O358   2.414       .  S
Zr343       O349   2.390       .  S
Zr343       O350   2.425       .  S
Zr343       O351   2.381       .  S
Zr343       O352   2.383       .  S
Zr344       O363   2.437       .  S
Zr344       O356   2.434       .  S
Zr344       O357   2.436       .  S
Zr344       O350   2.399       .  S
Zr344       O351   2.395       .  S
Zr345       O347   2.435       .  S
Zr345       O369   2.439       .  S
Zr345       O371   2.443       .  S
Zr345       O349   2.370       .  S
Zr345       O352   2.395       .  S
Zr346       O372   2.435       .  S
Zr346       O373   2.435       .  S
Zr346       O348   2.435   1_655  S
Zr346       O349   2.383       .  S
Zr346       O350   2.409       .  S
O347        H384   0.990       .  S
O348        H379   0.990       .  S
O348        H393   0.990       .  S
O350        H376   0.966       .  S
O351       Zr361   2.382       .  S
O352       Zr361   2.398       .  S
O352        H377   0.966       .  S
C353        C994   1.482       .  S
C354       C1084   1.479   1_545  S
C355        C954   1.490       .  S
O356        H392   0.989       .  S
O357        C359   1.286       .  A
O358        C359   1.279       .  A
C359       C1077   1.480       .  S
O360       Zr361   2.439       .  S
O360        H389   0.990       .  S
Zr361       O364   2.437       .  S
Zr361       O365   2.439       .  S
Zr361       O366   2.396       .  S
O362        C367   1.287       .  A
O363        H380   0.990       .  S
O363        H395   0.990       .  S
O364        H381   0.990       .  S
O365        H385   0.990       .  S
O365        H394   0.990       .  S
O366        C367   1.277       .  A
C367        C987   1.484       .  S
O368        H387   0.991       .  S
O368        H391   0.990       .  S
O369        H383   0.990       .  S
O369        H390   0.990       .  S
O370        C374   1.286       .  A
O371        C374   1.287       .  A
O372        H382   0.990       .  S
O373        H386   0.990       .  S
C374        C944   1.488       .  S
Zr397       O398   2.439       .  S
Zr397       O399   2.415       .  S
Zr397       O400   2.448       .  S
Zr397       O403   2.422       .  S
Zr397       O405   2.377       .  S
Zr397       O406   2.390       .  S
Zr397       O407   2.397       .  S
Zr397       O408   2.395       .  S
O398        H454   0.990       .  S
O398        H462   0.990       .  S
O399        C419   1.281       .  A
O400        C421   1.288       .  A
O401       Zr411   2.435       .  S
O401        C420   1.285       .  A
O402       Zr410   2.429       .  S
O402        C421   1.285       .  A
O403        C420   1.284       .  A
O404       Zr412   2.434       .  S
O404        C419   1.285       .  A
O405       Zr410   2.390       .  S
O405       Zr412   2.365       .  S
O406       Zr411   2.395       .  S
O406       Zr412   2.381       .  S
O406        H441   0.966       .  S
O407       Zr410   2.400       .  S
O407       Zr427   2.394       .  S
O407        H444   0.966       .  S
O408       Zr411   2.392       .  S
O408       Zr427   2.381       .  S
Zr409       O434   2.443       .  S
Zr409       O428   2.450       .  S
Zr409       O436   2.460       .  S
Zr409       O424   2.421       .  S
Zr409       O415   2.388       .  S
Zr409       O416   2.423       .  S
Zr409       O417   2.383       .  S
Zr409       O418   2.387       .  S
Zr410       O429   2.436       .  S
Zr410       O422   2.434       .  S
Zr410       O423   2.432       .  S
Zr410       O416   2.403       .  S
Zr410       O417   2.393       .  S
Zr411       O413   2.436       .  S
Zr411       O435   2.439       .  S
Zr411       O437   2.445       .  S
Zr411       O415   2.375       .  S
Zr411       O418   2.397       .  S
Zr412       O438   2.435       .  S
Zr412       O439   2.435       .  S
Zr412       O414   2.437       .  S
Zr412       O415   2.382       .  S
Zr412       O416   2.407       .  S
O413        H450   0.990       .  S
O414        H445   0.990       .  S
O414        H459   0.990       .  S
O416        H442   0.966       .  S
O417       Zr427   2.379       .  S
O418       Zr427   2.398       .  S
O418        H443   0.966       .  S
C419        C924   1.480       .  S
C420        C894   1.482   1_455  S
C421        C934   1.491       .  S
O422        H458   0.990       .  S
O423        C425   1.285       .  A
O424        C425   1.280       .  A
C425        C904   1.481       .  S
O426       Zr427   2.435       .  S
O426        H455   0.990       .  S
Zr427       O430   2.436       .  S
Zr427       O431   2.439       .  S
Zr427       O432   2.391       .  S
O428        C433   1.286       .  A
O429        H446   0.990       .  S
O429        H461   0.990       .  S
O430        H447   0.990       .  S
O431        H451   0.990       .  S
O431        H460   0.989       .  S
O432        C433   1.276       .  A
C433        C917   1.481       .  S
O434        H453   0.991       .  S
O434        H457   0.990       .  S
O435        H449   0.990       .  S
O435        H456   0.990       .  S
O436        C440   1.288       .  A
O437        C440   1.287       .  A
O438        H448   0.990       .  S
O439        H452   0.990       .  S
C440        C964   1.489       .  S
Zr463       O464   2.439       .  S
Zr463       O465   2.414       .  S
Zr463       O466   2.441       .  S
Zr463       O469   2.424       .  S
Zr463       O471   2.376       .  S
Zr463       O472   2.388       .  S
Zr463       O473   2.394       .  S
Zr463       O474   2.393       .  S
O464        H520   0.990       .  S
O464        H528   0.990       .  S
O465        C485   1.282       .  A
O466        C487   1.286       .  A
O467       Zr477   2.425       .  S
O467        C486   1.284       .  A
O468       Zr476   2.438       .  S
O468        C487   1.287       .  A
O469        C486   1.285       .  A
O470       Zr478   2.444       .  S
O470        C485   1.287       .  A
O471       Zr476   2.387       .  S
O471       Zr478   2.365       .  S
O472       Zr477   2.390       .  S
O472       Zr478   2.378       .  S
O472        H507   0.966       .  S
O473       Zr476   2.396       .  S
O473       Zr493   2.390       .  S
O473        H510   0.966       .  S
O474       Zr477   2.392       .  S
O474       Zr493   2.378       .  S
Zr475       O500   2.444       .  S
Zr475       O494   2.453       .  S
Zr475       O502   2.448       .  S
Zr475       O490   2.420       .  S
Zr475       O481   2.389       .  S
Zr475       O482   2.422       .  S
Zr475       O483   2.380       .  S
Zr475       O484   2.385       .  S
Zr476       O495   2.436       .  S
Zr476       O488   2.435       .  S
Zr476       O489   2.428       .  S
Zr476       O482   2.398       .  S
Zr476       O483   2.394       .  S
Zr477       O479   2.436       .  S
Zr477       O501   2.439       .  S
Zr477       O503   2.439       .  S
Zr477       O481   2.368       .  S
Zr477       O484   2.392       .  S
Zr478       O504   2.435       .  S
Zr478       O505   2.435       .  S
Zr478       O480   2.436       .  S
Zr478       O481   2.382       .  S
Zr478       O482   2.411       .  S
O479        H516   0.990   1_545  S
O480        H511   0.990       .  S
O480        H525   0.990       .  S
O482        H508   0.966       .  S
O483       Zr493   2.380       .  S
O484       Zr493   2.398       .  S
O484        H509   0.966       .  S
C485        C884   1.485       .  S
C486        C864   1.480   1_545  S
C487        C937   1.491       .  S
O488        H524   0.990       .  S
O489        C491   1.285       .  A
O490        C491   1.280       .  A
C491        C854   1.479       .  S
O492       Zr493   2.435       .  S
O492        H521   0.990       .  S
Zr493       O496   2.436       .  S
Zr493       O497   2.436       .  S
Zr493       O498   2.385       .  S
O494        C499   1.287       .  A
O495        H512   0.990       .  S
O495        H527   0.990       .  S
O496        H513   0.990       .  S
O497        H517   0.990       .  S
O497        H526   0.990       .  S
O498        C499   1.275       .  A
C499        C877   1.479       .  S
O500        H519   0.991       .  S
O500        H523   0.990       .  S
O501        H515   0.990       .  S
O501        H522   0.990       .  S
O502        C506   1.286       .  A
O503        C506   1.287       .  A
O504        H514   0.990       .  S
O505        H518   0.991       .  S
C506        C977   1.484       .  S
Zr529       O530   2.439       .  S
Zr529       O531   2.419       .  S
Zr529       O532   2.439       .  S
Zr529       O535   2.430       .  S
Zr529       O537   2.381       .  S
Zr529       O538   2.387       .  S
Zr529       O539   2.399       .  S
Zr529       O540   2.392       .  S
O530        H586   0.990       .  S
O530        H594   0.990       .  S
O531        C551   1.283       .  A
O532        C553   1.286       .  A
O533       Zr543   2.422       .  S
O533        C552   1.283       .  A
O534       Zr542   2.445       .  S
O534        C553   1.288       .  A
O535        C552   1.286       .  A
O536       Zr544   2.445       .  S
O536        C551   1.287       .  A
O537       Zr542   2.391       .  S
O537       Zr544   2.363       .  S
O538       Zr543   2.393       .  S
O538       Zr544   2.379       .  S
O538        H573   0.965       .  S
O539       Zr542   2.400       .  S
O539       Zr559   2.394       .  S
O539        H576   0.966       .  S
O540       Zr543   2.393       .  S
O540       Zr559   2.378       .  S
Zr541       O566   2.444       .  S
Zr541       O560   2.453       .  S
Zr541       O568   2.454       .  S
Zr541       O556   2.414       .  S
Zr541       O547   2.388       .  S
Zr541       O548   2.426       .  S
Zr541       O549   2.382       .  S
Zr541       O550   2.382       .  S
Zr542       O561   2.436       .  S
Zr542       O554   2.435       .  S
Zr542       O555   2.437       .  S
Zr542       O548   2.400       .  S
Zr542       O549   2.393       .  S
Zr543       O545   2.436       .  S
Zr543       O567   2.439       .  S
Zr543       O569   2.447       .  S
Zr543       O547   2.369       .  S
Zr543       O550   2.395       .  S
Zr544       O570   2.434       .  S
Zr544       O571   2.435       .  S
Zr544       O546   2.438   1_455  S
Zr544       O547   2.385       .  S
Zr544       O548   2.410       .  S
O545        H582   0.990       .  S
O546        H577   0.990       .  S
O546        H591   0.990       .  S
O548        H574   0.966       .  S
O549       Zr559   2.380       .  S
O550       Zr559   2.400       .  S
O550        H575   0.966       .  S
C551        C834   1.486   1_455  S
C552        C927   1.481   1_565  S
C553        C824   1.493       .  S
O554        H590   0.990       .  S
O555        C557   1.286       .  A
O556        C557   1.279       .  A
C557        C914   1.480       .  S
O558       Zr559   2.436       .  S
O558        H587   0.990       .  S
Zr559       O562   2.437       .  S
Zr559       O563   2.437       .  S
Zr559       O564   2.386       .  S
O560        C565   1.287       .  A
O561        H578   0.990       .  S
O561        H593   0.990       .  S
O562        H579   0.990       .  S
O563        H583   0.990       .  S
O563        H592   0.990       .  S
O564        C565   1.275       .  A
C565        C844   1.480       .  S
O566        H585   0.991       .  S
O566        H589   0.990       .  S
O567        H581   0.990       .  S
O567        H588   0.990       .  S
O568        C572   1.287       .  A
O569        C572   1.288       .  A
O570        H580   0.990       .  S
O571        H584   0.990       .  S
C572       C1037   1.489       .  S
Zr595       O596   2.438       .  S
Zr595       O597   2.406       .  S
Zr595       O598   2.446       .  S
Zr595       O601   2.434       .  S
Zr595       O603   2.379       .  S
Zr595       O604   2.388       .  S
Zr595       O605   2.395       .  S
Zr595       O606   2.390       .  S
O596        H652   0.990       .  S
O596        H660   0.990       .  S
O597        C617   1.280   1_655  A
O598        C619   1.288       .  A
O599       Zr609   2.411       .  S
O599        C618   1.282       .  A
O600       Zr608   2.438       .  S
O600        C619   1.286       .  A
O601        C618   1.287       .  A
O602       Zr610   2.441   1_455  S
O602        C617   1.286       .  A
O603       Zr608   2.390       .  S
O603       Zr610   2.365       .  S
O604       Zr609   2.392       .  S
O604       Zr610   2.376       .  S
O604        H639   0.965       .  S
O605       Zr608   2.400       .  S
O605       Zr625   2.396       .  S
O605        H642   0.966       .  S
O606       Zr609   2.392       .  S
O606       Zr625   2.376       .  S
Zr607       O632   2.442       .  S
Zr607       O626   2.450       .  S
Zr607       O634   2.453       .  S
Zr607       O622   2.423       .  S
Zr607       O613   2.388       .  S
Zr607       O614   2.422       .  S
Zr607       O615   2.382       .  S
Zr607       O616   2.385       .  S
Zr608       O627   2.439       .  S
Zr608       O620   2.435       .  S
Zr608       O621   2.436       .  S
Zr608       O614   2.403       .  S
Zr608       O615   2.392       .  S
Zr609       O611   2.437       .  S
Zr609       O633   2.439       .  S
Zr609       O635   2.436       .  S
Zr609       O613   2.372       .  S
Zr609       O616   2.394       .  S
Zr610       O636   2.435       .  S
Zr610       O637   2.434       .  S
Zr610       O612   2.436   1_655  S
Zr610       O613   2.385       .  S
Zr610       O614   2.409       .  S
O611        H648   0.990       .  S
O612        H643   0.990       .  S
O612        H657   0.990       .  S
O614        H640   0.966       .  S
O615       Zr625   2.381       .  S
O616       Zr625   2.399       .  S
O616        H641   0.966       .  S
C617        C867   1.480       .  S
C618        C804   1.478       .  S
C619        C827   1.493       .  S
O620        H656   0.990       .  S
O621        C623   1.285       .  A
O622        C623   1.281       .  A
C623        C814   1.483       .  S
O624       Zr625   2.436       .  S
O624        H653   0.990       .  S
Zr625       O628   2.437       .  S
Zr625       O629   2.438       .  S
Zr625       O630   2.390       .  S
O626        C631   1.286       .  A
O627        H644   0.990       .  S
O627        H659   0.990       .  S
O628        H645   0.990       .  S
O629        H649   0.990       .  S
O629        H658   0.990       .  S
O630        C631   1.277       .  A
C631        C857   1.480       .  S
O632        H651   0.991       .  S
O632        H655   0.990       .  S
O633        H647   0.990       .  S
O633        H654   0.990       .  S
O634        C638   1.287       .  A
O635        C638   1.286       .  A
O636        H646   0.990       .  S
O637        H650   0.990       .  S
C638       C1047   1.488       .  S
Zr661       O662   2.439       .  S
Zr661       O663   2.414       .  S
Zr661       O664   2.442       .  S
Zr661       O667   2.431       .  S
Zr661       O669   2.379       .  S
Zr661       O670   2.386       .  S
Zr661       O671   2.399       .  S
Zr661       O672   2.395       .  S
O662        H718   0.991       .  S
O662        H726   0.990       .  S
O663        C683   1.281       .  A
O664        C685   1.286       .  A
O665       Zr675   2.433       .  S
O665        C684   1.285       .  A
O666       Zr674   2.419       .  S
O666        C685   1.284       .  A
O667        C684   1.286       .  A
O668       Zr676   2.429       .  S
O668        C683   1.284       .  A
O669       Zr674   2.390       .  S
O669       Zr676   2.365       .  S
O670       Zr675   2.395       .  S
O670       Zr676   2.380       .  S
O670        H705   0.966       .  S
O671       Zr674   2.401       .  S
O671       Zr691   2.394       .  S
O671        H708   0.966       .  S
O672       Zr675   2.393       .  S
O672       Zr691   2.381       .  S
Zr673       O698   2.443       .  S
Zr673       O692   2.454       .  S
Zr673       O700   2.452       .  S
Zr673       O688   2.416       .  S
Zr673       O679   2.388       .  S
Zr673       O680   2.422       .  S
Zr673       O681   2.378       .  S
Zr673       O682   2.386       .  S
Zr674       O693   2.436       .  S
Zr674       O686   2.433       .  S
Zr674       O687   2.431       .  S
Zr674       O680   2.397       .  S
Zr674       O681   2.389       .  S
Zr675       O677   2.436       .  S
Zr675       O699   2.439       .  S
Zr675       O701   2.444       .  S
Zr675       O679   2.373       .  S
Zr675       O682   2.395       .  S
Zr676       O702   2.434       .  S
Zr676       O703   2.435       .  S
Zr676       O678   2.437   1_565  S
Zr676       O679   2.378       .  S
Zr676       O680   2.410       .  S
O677        H714   0.990       .  S
O678        H709   0.990       .  S
O678        H723   0.990       .  S
O680        H706   0.966       .  S
O681       Zr691   2.378       .  S
O682       Zr691   2.398       .  S
O682        H707   0.965       .  S
C683        C897   1.480   1_565  S
C684        C837   1.486       .  S
C685        C794   1.484       .  S
O686        H722   0.990       .  S
O687        C689   1.284       .  A
O688        C689   1.279       .  A
C689        C847   1.479       .  S
O690       Zr691   2.435       .  S
O690        H719   0.990       .  S
Zr691       O694   2.436       .  S
Zr691       O695   2.439       .  S
Zr691       O696   2.388       .  S
O692        C697   1.287       .  A
O693        H710   0.990       .  S
O693        H725   0.990       .  S
O694        H711   0.990       .  S
O695        H715   0.990       .  S
O695        H724   0.990       .  S
O696        C697   1.276       .  A
C697        C907   1.480       .  S
O698        H717   0.991       .  S
O698        H721   0.990       .  S
O699        H713   0.990       .  S
O699        H720   0.990       .  S
O700        C704   1.287       .  A
O701        C704   1.288       .  A
O702        H712   0.990       .  S
O703        H716   0.990       .  S
C704       C1097   1.484       .  S
Zr727       O728   2.440       .  S
Zr727       O729   2.407       .  S
Zr727       O730   2.439       .  S
Zr727       O733   2.436       .  S
Zr727       O735   2.384       .  S
Zr727       O736   2.385       .  S
Zr727       O737   2.398       .  S
Zr727       O738   2.394       .  S
O728        H784   0.991       .  S
O728        H792   0.990       .  S
O729        C749   1.279   1_545  A
O730        C751   1.286       .  A
O731       Zr741   2.426       .  S
O731        C750   1.283       .  A
O732       Zr740   2.425       .  S
O732        C751   1.285       .  A
O733        C750   1.286       .  A
O734       Zr742   2.433   1_565  S
O734        C749   1.285       .  A
O735       Zr740   2.394       .  S
O735       Zr742   2.365       .  S
O736       Zr741   2.396       .  S
O736       Zr742   2.380       .  S
O736        H771   0.966       .  S
O737       Zr740   2.401       .  S
O737       Zr757   2.393       .  S
O737        H774   0.966       .  S
O738       Zr741   2.393       .  S
O738       Zr757   2.385       .  S
Zr739       O764   2.443       .  S
Zr739       O758   2.457       .  S
Zr739       O766   2.454       .  S
Zr739       O754   2.410       .  S
Zr739       O745   2.387       .  S
Zr739       O746   2.426       .  S
Zr739       O747   2.383       .  S
Zr739       O748   2.383       .  S
Zr740       O759   2.434       .  S
Zr740       O752   2.436       .  S
Zr740       O753   2.437       .  S
Zr740       O746   2.400       .  S
Zr740       O747   2.389       .  S
Zr741       O743   2.436       .  S
Zr741       O765   2.438       .  S
Zr741       O767   2.442       .  S
Zr741       O745   2.374       .  S
Zr741       O748   2.394       .  S
Zr742       O768   2.435       .  S
Zr742       O769   2.435       .  S
Zr742       O744   2.437   1_545  S
Zr742       O745   2.381       .  S
Zr742       O746   2.408       .  S
O743        H780   0.990       .  S
O744        H775   0.990       .  S
O744        H789   0.990       .  S
O746        H772   0.966       .  S
O747       Zr757   2.379       .  S
O748       Zr757   2.400       .  S
O748        H773   0.965       .  S
C749        C807   1.478       .  S
C750        C887   1.485   1_655  S
C751        C797   1.485       .  S
O752        H788   0.990       .  S
O753        C755   1.286       .  A
O754        C755   1.278       .  A
C755        C874   1.478       .  S
O756       Zr757   2.435       .  S
O756        H785   0.990       .  S
Zr757       O760   2.439       .  S
Zr757       O761   2.438       .  S
Zr757       O762   2.393       .  S
O758        C763   1.287       .  A
O759        H776   0.990       .  S
O759        H791   0.990       .  S
O760        H777   0.990       .  S
O761        H781   0.990       .  S
O761        H790   0.989       .  S
O762        C763   1.277       .  A
C763        C817   1.484       .  S
O764        H783   0.991       .  S
O764        H787   0.990       .  S
O765        H779   0.990       .  S
O765        H786   0.990       .  S
O766        C770   1.287       .  A
O767        C770   1.287       .  A
O768        H778   0.990       .  S
O769        H782   0.990       .  S
C770        C947   1.488       .  S
C793        C794   1.406       .  A
C793        C798   1.400   1_564  A
C793        H799   1.083       .  S
C794        C795   1.407       .  A
C795        C796   1.396   1_564  A
C795        H800   1.083       .  S
C796        C797   1.406       .  A
C796        H801   1.083       .  S
C797        C798   1.408       .  A
C798        H802   1.083       .  S
C803        C804   1.404       .  A
C803        C808   1.396       .  A
C803        H809   1.083       .  S
C804        C805   1.408       .  A
C805        C806   1.393       .  A
C805        H810   1.083       .  S
C806        C807   1.403       .  A
C806        H811   1.083       .  S
C807        C808   1.408       .  A
C808        H812   1.083       .  S
C813        C814   1.402       .  A
C813        C818   1.394       .  A
C813        H819   1.083       .  S
C814        C815   1.410       .  A
C815        C816   1.400       .  A
C815        H820   1.083       .  S
C816        C817   1.404       .  A
C816        H821   1.083       .  S
C817        C818   1.410       .  A
C818        H822   1.083       .  S
C823        C824   1.407       .  A
C823        C828   1.402   1_454  A
C823        H829   1.083       .  S
C824        C825   1.409       .  A
C825        C826   1.402   1_454  A
C825        H830   1.083       .  S
C826        C827   1.407       .  A
C826        H831   1.083       .  S
C827        C828   1.409       .  A
C828        H832   1.083       .  S
C833        C834   1.405       .  A
C833        C838   1.399       .  A
C833        H839   1.083       .  S
C834        C835   1.408       .  A
C835        C836   1.398       .  A
C835        H840   1.083       .  S
C836        C837   1.406       .  A
C836        H841   1.083       .  S
C837        C838   1.408       .  A
C838        H842   1.083       .  S
C843        C844   1.410       .  A
C843        C848   1.395       .  A
C843        H849   1.083       .  S
C844        C845   1.401       .  A
C845        C846   1.395       .  A
C845        H850   1.083       .  S
C846        C847   1.409       .  A
C846        H851   1.082       .  S
C847        C848   1.402       .  A
C848        H852   1.083       .  S
C853        C854   1.409       .  A
C853        C858   1.397       .  A
C853        H859   1.083       .  S
C854        C855   1.402       .  A
C855        C856   1.394       .  A
C855        H860   1.083       .  S
C856        C857   1.409       .  A
C856        H861   1.083       .  S
C857        C858   1.403       .  A
C858        H862   1.083       .  S
C863        C864   1.407       .  A
C863        C868   1.394       .  A
C863        H869   1.083       .  S
C864        C865   1.405       .  A
C865        C866   1.396       .  A
C865        H870   1.083       .  S
C866        C867   1.408       .  A
C866        H871   1.083       .  S
C867        C868   1.403       .  A
C868        H872   1.083       .  S
C873        C874   1.401       .  A
C873        C878   1.394       .  A
C873        H879   1.083       .  S
C874        C875   1.410       .  A
C875        C876   1.396       .  A
C875        H880   1.083       .  S
C876        C877   1.402       .  A
C876        H881   1.083       .  S
C877        C878   1.410       .  A
C878        H882   1.083       .  S
C883        C884   1.409       .  A
C883        C888   1.398       .  A
C883        H889   1.083       .  S
C884        C885   1.404       .  A
C885        C886   1.398       .  A
C885        H890   1.083       .  S
C886        C887   1.409       .  A
C886        H891   1.083       .  S
C887        C888   1.404       .  A
C888        H892   1.083       .  S
C893        C894   1.406       .  A
C893        C898   1.395       .  A
C893        H899   1.083       .  S
C894        C895   1.407       .  A
C895        C896   1.397       .  A
C895        H900   1.083       .  S
C896        C897   1.405       .  A
C896        H901   1.083       .  S
C897        C898   1.406       .  A
C898        H902   1.083       .  S
C903        C904   1.410       .  A
C903        C908   1.397       .  A
C903        H909   1.082       .  S
C904        C905   1.402       .  A
C905        C906   1.395       .  A
C905        H910   1.083       .  S
C906        C907   1.410       .  A
C906        H911   1.083       .  S
C907        C908   1.401       .  A
C908        H912   1.083       .  S
C913        C914   1.410       .  A
C913        C918   1.399       .  A
C913        H919   1.083       .  S
C914        C915   1.401       .  A
C915        C916   1.392       .  A
C915        H920   1.083       .  S
C916        C917   1.409       .  A
C916        H921   1.083       .  S
C917        C918   1.404       .  A
C918        H922   1.083       .  S
C923        C924   1.404       .  A
C923        C928   1.395       .  A
C923        H929   1.083       .  S
C924        C925   1.408       .  A
C925        C926   1.397       .  A
C925        H930   1.083       .  S
C926        C927   1.404       .  A
C926        H931   1.083       .  S
C927        C928   1.408       .  A
C928        H932   1.083       .  S
C933        C934   1.407       .  A
C933        C938   1.403   1_554  A
C933        H939   1.083       .  S
C934        C935   1.408       .  A
C935        C936   1.399   1_554  A
C935        H940   1.083       .  S
C936        C937   1.406       .  A
C936        H941   1.083       .  S
C937        C938   1.409       .  A
C938        H942   1.083       .  S
C943        C944   1.405       .  A
C943        C948   1.397       .  A
C943        H949   1.083       .  S
C944        C945   1.408       .  A
C945        C946   1.407       .  A
C945        H950   1.083       .  S
C946        C947   1.408       .  A
C946        H951   1.083       .  S
C947        C948   1.406       .  A
C948        H952   1.083       .  S
C953        C954   1.409       .  A
C953        C958   1.402   1_655  A
C953        H959   1.083       .  S
C954        C955   1.406       .  A
C955        C956   1.399   1_655  A
C955        H960   1.083       .  S
C956        C957   1.408       .  A
C956        H961   1.083       .  S
C957        C958   1.407       .  A
C958        H962   1.083       .  S
C963        C964   1.407       .  A
C963        C968   1.407       .  A
C963        H969   1.083       .  S
C964        C965   1.406       .  A
C965        C966   1.399       .  A
C965        H970   1.083       .  S
C966        C967   1.407       .  A
C966        H971   1.083       .  S
C967        C968   1.409       .  A
C968        H972   1.083       .  S
C973        C974   1.407       .  A
C973        C978   1.405       .  A
C973        H979   1.083       .  S
C974        C975   1.405       .  A
C975        C976   1.394       .  A
C975        H980   1.083       .  S
C976        C977   1.405       .  A
C976        H981   1.083       .  S
C977        C978   1.408       .  A
C978        H982   1.083       .  S
C983        C984   1.402       .  A
C983        C988   1.395       .  A
C983        H989   1.083       .  S
C984        C985   1.409       .  A
C985        C986   1.400       .  A
C985        H990   1.083       .  S
C986        C987   1.405       .  A
C986        H991   1.083       .  S
C987        C988   1.409       .  A
C988        H992   1.083       .  S
C993        C994   1.408       .  A
C993        C998   1.398       .  A
C993        H999   1.083       .  S
C994        C995   1.404       .  A
C995        C996   1.395       .  A
C995       H1000   1.083       .  S
C996        C997   1.408       .  A
C996       H1001   1.083       .  S
C997        C998   1.405       .  A
C998       H1002   1.083       .  S
C1003      C1004   1.409       .  A
C1003      C1008   1.404   1_565  A
C1003      H1009   1.083       .  S
C1004      C1005   1.407       .  A
C1005      C1006   1.402   1_565  A
C1005      H1010   1.083       .  S
C1006      C1007   1.408       .  A
C1006      H1011   1.083       .  S
C1007      C1008   1.408       .  A
C1008      H1012   1.083       .  S
C1013      C1014   1.408       .  A
C1013      C1018   1.395       .  A
C1013      H1019   1.083       .  S
C1014      C1015   1.404       .  A
C1015      C1016   1.396       .  A
C1015      H1020   1.083       .  S
C1016      C1017   1.408       .  A
C1016      H1021   1.083       .  S
C1017      C1018   1.403       .  A
C1018      H1022   1.083       .  S
C1023      C1024   1.410       .  A
C1023      C1028   1.398       .  A
C1023      H1029   1.083       .  S
C1024      C1025   1.402       .  A
C1025      C1026   1.394       .  A
C1025      H1030   1.083       .  S
C1026      C1027   1.409       .  A
C1026      H1031   1.083       .  S
C1027      C1028   1.403       .  A
C1028      H1032   1.083       .  S
C1033      C1034   1.408       .  A
C1033      C1038   1.406       .  A
C1033      H1039   1.083       .  S
C1034      C1035   1.407       .  A
C1035      C1036   1.399       .  A
C1035      H1040   1.083       .  S
C1036      C1037   1.406       .  A
C1036      H1041   1.083       .  S
C1037      C1038   1.408       .  A
C1038      H1042   1.083       .  S
C1043      C1044   1.408       .  A
C1043      C1048   1.406       .  A
C1043      H1049   1.083       .  S
C1044      C1045   1.405       .  A
C1045      C1046   1.398       .  A
C1045      H1050   1.083       .  S
C1046      C1047   1.407       .  A
C1046      H1051   1.083       .  S
C1047      C1048   1.408       .  A
C1048      H1052   1.083       .  S
C1053      C1054   1.410       .  A
C1053      C1058   1.398       .  A
C1053      H1059   1.083       .  S
C1054      C1055   1.400       .  A
C1055      C1056   1.393       .  A
C1055      H1060   1.083       .  S
C1056      C1057   1.409       .  A
C1056      H1061   1.083       .  S
C1057      C1058   1.403       .  A
C1058      H1062   1.083       .  S
C1063      C1064   1.404       .  A
C1063      C1068   1.396       .  A
C1063      H1069   1.083       .  S
C1064      C1065   1.408       .  A
C1065      C1066   1.397       .  A
C1065      H1070   1.083       .  S
C1066      C1067   1.404       .  A
C1066      H1071   1.083       .  S
C1067      C1068   1.408       .  A
C1068      H1072   1.083       .  S
C1073      C1074   1.409       .  A
C1073      C1078   1.393       .  A
C1073      H1079   1.083       .  S
C1074      C1075   1.402       .  A
C1075      C1076   1.398       .  A
C1075      H1080   1.083       .  S
C1076      C1077   1.411       .  A
C1076      H1081   1.083       .  S
C1077      C1078   1.401       .  A
C1078      H1082   1.083       .  S
C1083      C1084   1.407       .  A
C1083      C1088   1.394       .  A
C1083      H1089   1.083       .  S
C1084      C1085   1.405       .  A
C1085      C1086   1.397       .  A
C1085      H1090   1.083       .  S
C1086      C1087   1.407       .  A
C1086      H1091   1.083       .  S
C1087      C1088   1.403       .  A
C1088      H1092   1.083       .  S
C1093      C1094   1.406       .  A
C1093      C1098   1.396       .  A
C1093      H1099   1.083       .  S
C1094      C1095   1.409       .  A
C1095      C1096   1.406       .  A
C1095      H1100   1.083       .  S
C1096      C1097   1.407       .  A
C1096      H1101   1.083       .  S
C1097      C1098   1.404       .  A
C1098      H1102   1.083       .  S
C1103      C1104   1.408       .  A
C1103      C1108   1.401       .  A
C1103      H1109   1.083       .  S
C1104      C1105   1.407       .  A
C1105      C1106   1.398       .  A
C1105      H1110   1.083       .  S
C1106      C1107   1.407       .  A
C1106      H1111   1.083       .  S
C1107      C1108   1.407       .  A
C1108      H1112   1.083       .  S
C1113      C1114   1.404       .  A
C1113      C1118   1.396       .  A
C1113      H1119   1.083       .  S
C1114      C1115   1.407       .  A
C1115      C1116   1.395       .  A
C1115      H1120   1.083       .  S
C1116      C1117   1.404       .  A
C1116      H1121   1.083       .  S
C1117      C1118   1.408       .  A
C1118      H1122   1.083       .  S
C1123      C1124   1.403       .  A
C1123      C1128   1.393       .  A
C1123      H1129   1.083       .  S
C1124      C1125   1.407       .  A
C1125      C1126   1.395       .  A
C1125      H1130   1.083       .  S
C1126      C1127   1.403       .  A
C1126      H1131   1.083       .  S
C1127      C1128   1.408       .  A
C1128      H1132   1.083       .  S
C1133      C1134   1.408       .  A
C1133      C1138   1.397       .  A
C1133      H1139   1.083       .  S
C1134      C1135   1.404       .  A
C1135      C1136   1.395       .  A
C1135      H1140   1.083       .  S
C1136      C1137   1.408       .  A
C1136      H1141   1.083       .  S
C1137      C1138   1.404       .  A
C1138      H1142   1.083       .  S
C1143      C1144   1.411       .  A
C1143      C1148   1.399       .  A
C1143      H1149   1.083       .  S
C1144      C1145   1.402       .  A
C1145      C1146   1.395       .  A
C1145      H1150   1.083       .  S
C1146      C1147   1.410       .  A
C1146      H1151   1.083       .  S
C1147      C1148   1.403       .  A
C1148      H1152   1.083       .  S
