geometry optimzed in LAMMPS
_audit_creation_date              2020-12-01 
_audit_creation_method            'lammps2cif' 
_symmetry_space_group_name_H-M    'P1' 
_symmetry_Int_Tables_number       1 
_symmetry_cell_setting            triclinic 
loop_ 
_symmetry_equiv_pos_as_xyz 
  x,y,z 
_cell_length_a                    26.42878024 
_cell_length_b                    26.394222529151342 
_cell_length_c                    37.66864773098285 
_cell_angle_alpha                 90.0160106610217 
_cell_angle_beta                  90.03132141434651 
_cell_angle_gamma                 90.11771899370508 
loop_ 
_atom_site_label 
_atom_site_type_symbol 
_atom_site_fract_x 
_atom_site_fract_y 
_atom_site_fract_z 
_atom_site_charge 
Fe1        Fe  0.16284323  0.28756313  0.37778241     1.65800
Fe2        Fe  0.28260574  0.30700105  0.40150569     1.73200
Fe3        Fe  0.19155215  0.38720473  0.43001563     1.54400
O4          O  0.15688323  0.41624233  0.38490231    -0.83100
O5          O  0.29820242  0.32916682  0.45394958    -0.81500
O6          O  0.11586632  0.34886272  0.36542614    -0.85700
O7          O  0.12673967  0.27273984  0.42401266    -0.80500
O8          O  0.25478511  0.42980761  0.41395633    -0.82300
O9          O  0.26569166  0.23585331  0.41983340    -0.85000
C10         C  0.10884588  0.30421014  0.44602623     0.95700
C11         C  0.12748073  0.39547253  0.36257453     1.03200
O12         O  0.21250734  0.32727685  0.40374666    -1.14000
O13         O  0.27665265  0.28232131  0.34842926    -0.76400
O14         O  0.19839856  0.30131698  0.33137962    -0.79900
O15         O  0.12488551  0.35008500  0.44826075    -0.80600
C16         C  0.24298168  0.28750437  0.32432446     0.94600
O17         O  0.20252489  0.21955954  0.38294678    -0.78600
O18         O  0.30206301  0.37630532  0.38225219    -0.83800
C19         C  0.27342751  0.34745983  0.48007019     0.97300
C20         C  0.29018767  0.42074797  0.39179847     1.03200
O21         O  0.22857127  0.36443760  0.47627463    -0.79400
C22         C  0.24017419  0.20496711  0.40127630     1.01500
Fe23       Fe  0.36392683  0.23943411  0.12477349     1.65800
Fe24       Fe  0.24447554  0.21779281  0.10155524     1.73200
Fe25       Fe  0.33653536  0.14073481  0.07134821     1.54400
O26         O  0.40311805  0.17870657  0.05424360    -0.83100
O27         O  0.22725895  0.14770242  0.12022465    -0.81500
O28         O  0.39928127  0.25594069  0.07842553    -0.85700
O29         O  0.41159496  0.17820451  0.13597695    -0.80500
O30         O  0.29967509  0.16519133  0.02543881    -0.82300
O31         O  0.25048072  0.24098968  0.15487538    -0.85000
C32         C  0.39931800  0.13176585  0.13910034     0.95700
C33         C  0.41832702  0.22479083  0.05665433     1.03200
O34         O  0.31482681  0.19945686  0.09855090    -1.14000
O35         O  0.25951766  0.28956257  0.08392735    -0.76400
O36         O  0.32275794  0.30690894  0.12056401    -0.79900
O37         O  0.37048130  0.11093389  0.11643397    -0.80600
C38         C  0.28453948  0.32081841  0.10248909     0.94600
O39         O  0.32939961  0.22382502  0.17132835    -0.78600
O40         O  0.22893756  0.19665111  0.04889382    -0.83800
C41         C  0.23939750  0.10405750  0.10926212     0.97300
C42         C  0.25419531  0.18078047  0.02221424     1.03200
O43         O  0.27370957  0.09682734  0.08601682    -0.79400
C44         C  0.28438211  0.23559678  0.17878687     1.01500
Fe45       Fe  0.49231951  0.91052535  0.37458920     1.65800
Fe46       Fe  0.47600159  0.03074067  0.35064666     1.73200
Fe47       Fe  0.39432839  0.94139352  0.32139847     1.54400
O48         O  0.43054885  0.87431919  0.30295051    -0.83100
O49         O  0.40715439  0.05182688  0.36944494    -0.81500
O50         O  0.50710394  0.87428405  0.32839033    -0.85700
O51         O  0.42984647  0.86472191  0.38619852    -0.80500
O52         O  0.41832745  0.97840354  0.27542530    -0.82300
O53         O  0.49934481  0.02413982  0.40393139    -0.85000
C54         C  0.38375002  0.87781574  0.38897203     0.95700
C55         C  0.47606361  0.85765008  0.30554636     1.03200
O56         O  0.45415495  0.96104215  0.34825681    -1.14000
O57         O  0.54664987  0.01189882  0.33267990    -0.76400
O58         O  0.56126238  0.94893514  0.37005391    -0.79900
O59         O  0.36393002  0.90714974  0.36624917    -0.80600
C60         C  0.57681060  0.98600187  0.35145043     0.94600
O61         O  0.47858305  0.94619383  0.42106363    -0.78600
O62         O  0.45485229  0.04732934  0.29812168    -0.83800
C63         C  0.36260962  0.04076013  0.35969157     0.97300
C64         C  0.43599519  0.02314479  0.27187539     1.03200
O65         O  0.35295245  0.00538284  0.33752235    -0.79400
C66         C  0.49243958  0.99088922  0.42814176     1.01500
Fe67       Fe  0.53901898  0.11767131  0.62689664     1.65800
Fe68       Fe  0.55488639  0.99785593  0.65202493     1.73200
Fe69       Fe  0.63570613  0.08809301  0.68145603     1.54400
O70         O  0.66710673  0.12116206  0.63640074    -0.83100
O71         O  0.57474645  0.98263790  0.70494185    -0.81500
O72         O  0.60160511  0.16331256  0.61562953    -0.85700
O73         O  0.52313054  0.15496347  0.67248413    -0.80500
O74         O  0.67758763  0.02400937  0.66668503    -0.82300
O75         O  0.48341993  0.01644706  0.66872221    -0.85000
C76         C  0.55364737  0.17213468  0.69546666     0.95700
C77         C  0.64766602  0.15006845  0.61323810     1.03200
O78         O  0.57644994  0.06771064  0.65416782    -1.14000
O79         O  0.53268791  0.00317564  0.59846219    -0.76400
O80         O  0.55372623  0.08086917  0.58096376    -0.79900
O81         O  0.59909801  0.15556119  0.69872707    -0.80600
C82         C  0.53977913  0.03611488  0.57409320     0.94600
O83         O  0.47014742  0.07958858  0.63115743    -0.78600
O84         O  0.62446840  0.97697734  0.63429329    -0.83800
C85         C  0.59293406  0.00726668  0.73122300     0.97300
C86         C  0.66870328  0.98854243  0.64448965     1.03200
O87         O  0.61068576  0.05197618  0.72756279    -0.79400
C88         C  0.45390431  0.04283989  0.64973131     1.01500
Fe89       Fe  0.99033002  0.91003436  0.12666578     1.65800
Fe90       Fe  0.97704808  0.03039057  0.15139295     1.73200
Fe91       Fe  0.89397802  0.94222264  0.18079722     1.54400
O92         O  0.86204827  0.90821401  0.13612018    -0.83100
O93         O  0.95683025  0.04706556  0.20409099    -0.81500
O94         O  0.92709484  0.86544898  0.11515352    -0.85700
O95         O  0.00503591  0.87276043  0.17238314    -0.80500
O96         O  0.85363682  0.00690645  0.16499325    -0.82300
O97         O  0.04757793  0.00993409  0.16890095    -0.85000
C98         C  0.97451181  0.85713130  0.19585885     0.95700
C99         C  0.88093327  0.87847692  0.11322308     1.03200
O100        O  0.95370484  0.96103592  0.15356415    -1.14000
O101        O  0.00006240  0.02392720  0.09795879    -0.76400
O102        O  0.97693615  0.94680505  0.08050096    -0.79900
O103        O  0.92942223  0.87467182  0.19907415    -0.80600
C104        C  0.99253116  0.99099426  0.07360284     0.94600
O105        O  0.05989643  0.94666317  0.13128729    -0.78600
O106        O  0.90826297  0.05296508  0.13312683    -0.83800
C107        C  0.93779516  0.02314287  0.23036619     0.97300
C108        C  0.86364427  0.04245956  0.14306899     1.03200
O109        O  0.91920363  0.97878067  0.22674919    -0.79400
C110        C  0.07671434  0.98294043  0.15007891     1.01500
Fe111      Fe  0.03811261  0.11606427  0.87471065     1.65800
Fe112      Fe  0.05732045  0.99691841  0.84974182     1.73200
Fe113      Fe  0.13566890  0.08917736  0.82027186     1.54400
O114        O  0.09744114  0.15589660  0.80331188    -0.83100
O115        O  0.12721971  0.97852294  0.86779682    -0.81500
O116        O  0.02120562  0.15289874  0.82906386    -0.85700
O117        O  0.09967046  0.16324466  0.88595924    -0.80500
O118        O  0.11135553  0.05271453  0.77415317    -0.82300
O119        O  0.03488589  0.00173505  0.90332815    -0.85000
C120        C  0.14594168  0.15071407  0.88859396     0.95700
C121        C  0.05159659  0.17138803  0.80651289     1.03200
O122        O  0.07688368  0.06726693  0.84746119    -1.14000
O123        O  0.98546011  0.01315498  0.83282278    -0.76400
O124        O  0.97022191  0.07566981  0.87050506    -0.79900
O125        O  0.16620605  0.12264428  0.86532121    -0.80600
C126        C  0.95514841  0.03820031  0.85204739     0.94600
O127        O  0.05420180  0.07992353  0.92065268    -0.78600
O128        O  0.07778883  0.98226738  0.79685887    -0.83800
C129        C  0.17116979  0.99106594  0.85771168     0.97300
C130        C  0.09488548  0.00751922  0.77052248     1.03200
O131        O  0.17925028  0.02610939  0.83504387    -0.79400
C132        C  0.04151218  0.03487997  0.92765680     1.01500
Fe133      Fe  0.86730416  0.24148745  0.37685212     1.65800
Fe134      Fe  0.74773701  0.22354957  0.40158475     1.73200
Fe135      Fe  0.83856753  0.14332138  0.43050759     1.54400
O136        O  0.87285459  0.11305560  0.38553244    -0.83100
O137        O  0.73230212  0.20250467  0.45424277    -0.81500
O138        O  0.91373887  0.17974482  0.36495867    -0.85700
O139        O  0.90423542  0.25718371  0.42262277    -0.80500
O140        O  0.77519762  0.10067416  0.41488943    -0.82300
O141        O  0.76551619  0.29503210  0.41906518    -0.85000
C142        C  0.92151565  0.22654553  0.44544638     0.95700
C143        C  0.90174718  0.13320540  0.36262690     1.03200
O144        O  0.81772441  0.20279633  0.40367078    -1.14000
O145        O  0.75322559  0.24719782  0.34834869    -0.76400
O146        O  0.83088265  0.22690509  0.33079798    -0.79900
O147        O  0.90524155  0.18083392  0.44843684    -0.80600
C148        C  0.78634280  0.24118604  0.32401347     0.94600
O149        O  0.82835559  0.30988820  0.38160753    -0.78600
O150        O  0.72763243  0.15388751  0.38308837    -0.83800
C151        C  0.75694776  0.18419358  0.48041567     0.97300
C152        C  0.73961629  0.10953122  0.39281795     1.03200
O153        O  0.80170706  0.16692651  0.47666700    -0.79400
C154        C  0.79133709  0.32529688  0.40020125     1.01500
Fe155      Fe  0.66164965  0.28880058  0.12556408     1.65800
Fe156      Fe  0.78075574  0.30986495  0.10138499     1.73200
Fe157      Fe  0.68839013  0.38677537  0.07138619     1.54400
O158        O  0.62183222  0.34853260  0.05457560    -0.83100
O159        O  0.79806528  0.38000962  0.11989857    -0.81500
O160        O  0.62531527  0.27183436  0.07962545    -0.85700
O161        O  0.61428810  0.35013646  0.13682543    -0.80500
O162        O  0.72475455  0.36195578  0.02548175    -0.82300
O163        O  0.77557182  0.28675684  0.15465544    -0.85000
C164        C  0.62658903  0.39660665  0.13948990     0.95700
C165        C  0.60656477  0.30252256  0.05739953     1.03200
O166        O  0.71037138  0.32830889  0.09873530    -1.14000
O167        O  0.76532358  0.23800114  0.08401629    -0.76400
O168        O  0.70252983  0.22130042  0.12117798    -0.79900
O169        O  0.65488412  0.41713176  0.11640342    -0.80600
C170        C  0.74026941  0.20702352  0.10278591     0.94600
O171        O  0.69720202  0.30482592  0.17178931    -0.78600
O172        O  0.79581136  0.33093234  0.04872684    -0.83800
C173        C  0.78563831  0.42361596  0.10902054     0.97300
C174        C  0.77027327  0.34664074  0.02214171     1.03200
O175        O  0.75129021  0.43075246  0.08576399    -0.79400
C176        C  0.74227251  0.29267544  0.17885804     1.01500
Fe177      Fe  0.86643117  0.74067630  0.62516762     1.65800
Fe178      Fe  0.74674976  0.72390547  0.60043774     1.73200
Fe179      Fe  0.83672702  0.64426857  0.57006572     1.54400
O180        O  0.90408291  0.68124934  0.55310627    -0.83100
O181        O  0.72670343  0.65403028  0.61805808    -0.81500
O182        O  0.90332979  0.75723886  0.57942737    -0.85700
O183        O  0.91199429  0.67793214  0.63583037    -0.80500
O184        O  0.80067234  0.67015398  0.52425479    -0.82300
O185        O  0.75242712  0.74563237  0.65414864    -0.85000
C186        C  0.89844944  0.63180974  0.63811087     0.95700
C187        C  0.92062969  0.72678425  0.55647011     1.03200
O188        O  0.81650717  0.70305585  0.59787505    -1.14000
O189        O  0.76486162  0.79555090  0.58382079    -0.76400
O190        O  0.82792217  0.80945505  0.62135282    -0.79900
O191        O  0.86970578  0.61240267  0.61480948    -0.80600
C192        C  0.79090663  0.82532410  0.60291235     0.94600
O193        O  0.83025676  0.72528338  0.67135850    -0.78600
O194        O  0.73111704  0.70433948  0.54747964    -0.83800
C195        C  0.73816060  0.61000241  0.60744670     0.97300
C196        C  0.75579041  0.68725197  0.52091317     1.03200
O197        O  0.77280551  0.60174704  0.58458664    -0.79400
C198        C  0.78545233  0.73848058  0.67844701     1.01500
Fe199      Fe  0.65860073  0.78784691  0.87719975     1.65800
Fe200      Fe  0.77843742  0.80143532  0.90268294     1.73200
Fe201      Fe  0.69014886  0.88465991  0.93133412     1.54400
O202        O  0.65721283  0.91622759  0.88629648    -0.83100
O203        O  0.79399141  0.82166661  0.95557381    -0.81500
O204        O  0.61412485  0.85097217  0.86569707    -0.85700
O205        O  0.62101585  0.77293983  0.92277578    -0.80500
O206        O  0.75511356  0.92523143  0.91598331    -0.82300
O207        O  0.75769169  0.73058042  0.91982504    -0.85000
C208        C  0.60473045  0.80375451  0.94584094     0.95700
C209        C  0.62763794  0.89705270  0.86339479     1.03200
O210        O  0.70923915  0.82469133  0.90439413    -1.14000
O211        O  0.77273332  0.77860487  0.84911454    -0.76400
O212        O  0.69588784  0.80152913  0.83125566    -0.79900
O213        O  0.62216639  0.84904786  0.94900400    -0.80600
C214        C  0.74013193  0.78613829  0.82457206     0.94600
O215        O  0.69508984  0.71832675  0.88170899    -0.78600
O216        O  0.80147191  0.87039767  0.88464749    -0.83800
C217        C  0.76988580  0.84108167  0.98161225     0.97300
C218        C  0.79082490  0.91514756  0.89426208     1.03200
O219        O  0.72578169  0.85983045  0.97764971    -0.79400
C220        C  0.73114046  0.70145266  0.90056525     1.01500
Fe221      Fe  0.53838337  0.61889668  0.37452639     1.65800
Fe222      Fe  0.55650082  0.49854516  0.35156259     1.73200
Fe223      Fe  0.63634002  0.58863684  0.32115356     1.54400
O224        O  0.59940288  0.65527312  0.30275054    -0.83100
O225        O  0.62596660  0.47905289  0.37017546    -0.81500
O226        O  0.52291093  0.65433700  0.32811308    -0.85700
O227        O  0.60045894  0.66544355  0.38560253    -0.80500
O228        O  0.61175627  0.55102331  0.27553714    -0.82300
O229        O  0.53356969  0.50551754  0.40486445    -0.85000
C230        C  0.64672970  0.65293462  0.38833075     0.95700
C231        C  0.55373582  0.67143835  0.30534061     1.03200
O232        O  0.57710047  0.56853381  0.34849437    -1.14000
O233        O  0.48530347  0.51565140  0.33378255    -0.76400
O234        O  0.46990788  0.57972256  0.37013923    -0.79900
O235        O  0.66683726  0.62359359  0.36572633    -0.80600
C236        C  0.45478111  0.54218456  0.35180833     0.94600
O237        O  0.55255060  0.58418826  0.42138205    -0.78600
O238        O  0.57713650  0.48167391  0.29902665    -0.83800
C239        C  0.67012478  0.49027104  0.35972006     0.97300
C240        C  0.59460959  0.50600548  0.27240473     1.03200
O241        O  0.67879721  0.52522511  0.33706284    -0.79400
C242        C  0.53966667  0.53932026  0.42881359     1.01500
Fe243      Fe  0.49033498  0.41390902  0.62739885     1.65800
Fe244      Fe  0.47455200  0.53368568  0.65273520     1.73200
Fe245      Fe  0.39335987  0.44337852  0.68157280     1.54400
O246        O  0.36223653  0.41071484  0.63627227    -0.83100
O247        O  0.45431273  0.54855567  0.70574092    -0.81500
O248        O  0.42780869  0.36833541  0.61592086    -0.85700
O249        O  0.50598782  0.37656100  0.67296803    -0.80500
O250        O  0.35167875  0.50768433  0.66691874    -0.82300
O251        O  0.54602984  0.51491604  0.66950856    -0.85000
C252        C  0.47525114  0.35917029  0.69568530     0.95700
C253        C  0.38183298  0.38173406  0.61323740     1.03200
O254        O  0.45284923  0.46384953  0.65461781    -1.14000
O255        O  0.49709166  0.52851896  0.59914169    -0.76400
O256        O  0.47593196  0.45088171  0.58151020    -0.79900
O257        O  0.42974303  0.37567838  0.69872694    -0.80600
C258        C  0.49033035  0.49551818  0.57472091     0.94600
O259        O  0.55913567  0.45185628  0.63183963    -0.78600
O260        O  0.40503641  0.55483709  0.63486407    -0.83800
C261        C  0.43571934  0.52378817  0.73183032     0.97300
C262        C  0.36072720  0.54334040  0.64492137     1.03200
O263        O  0.41807438  0.47908236  0.72790698    -0.79400
C264        C  0.57544215  0.48862535  0.65036403     1.01500
Fe265      Fe  0.16152115  0.79075284  0.62461332     1.65800
Fe266      Fe  0.28145422  0.80811469  0.60104626     1.73200
Fe267      Fe  0.19168472  0.88757065  0.57014650     1.54400
O268        O  0.12459498  0.85035111  0.55269639    -0.83100
O269        O  0.30107016  0.87800621  0.61901464    -0.81500
O270        O  0.12586469  0.77398639  0.57843853    -0.85700
O271        O  0.11519392  0.85311769  0.63468100    -0.80500
O272        O  0.22859363  0.86199776  0.52454358    -0.82300
O273        O  0.27468151  0.78596490  0.65462517    -0.85000
C274        C  0.12847329  0.89925728  0.63747500     0.95700
C275        C  0.10826516  0.80467674  0.55575501     1.03200
O276        O  0.21171952  0.82875088  0.59792396    -1.14000
O277        O  0.26382293  0.73648299  0.58407607    -0.76400
O278        O  0.20061455  0.72219081  0.62132032    -0.79900
O279        O  0.15782314  0.91905405  0.61473167    -0.80600
C280        C  0.23794209  0.70654565  0.60311728     0.94600
O281        O  0.19660995  0.80648579  0.67115025    -0.78600
O282        O  0.29795886  0.82798128  0.54823729    -0.83800
C283        C  0.28985250  0.92202443  0.60823910     0.97300
C284        C  0.27359298  0.84504017  0.52149584     1.03200
O285        O  0.25533666  0.93024261  0.58523764    -0.79400
C286        C  0.24114117  0.79279167  0.67861070     1.01500
Fe287      Fe  0.36416697  0.74198917  0.87776750     1.65800
Fe288      Fe  0.24423060  0.72722559  0.90265468     1.73200
Fe289      Fe  0.33319134  0.64458960  0.93136723     1.54400
O290        O  0.36695895  0.61359801  0.88640265    -0.83100
O291        O  0.22857806  0.70688708  0.95553329    -0.81500
O292        O  0.40960694  0.67945123  0.86638437    -0.85700
O293        O  0.40101011  0.75724428  0.92361368    -0.80500
O294        O  0.26879788  0.60339382  0.91562639    -0.82300
O295        O  0.26404251  0.79840646  0.91981402    -0.85000
C296        C  0.41764561  0.72636380  0.94650767     0.95700
C297        C  0.39676589  0.63319688  0.86384998     1.03200
O298        O  0.31364793  0.70454863  0.90459309    -1.14000
O299        O  0.25016389  0.74993663  0.84907004    -0.76400
O300        O  0.32747632  0.72784549  0.83166590    -0.79900
O301        O  0.40064483  0.68087009  0.94943093    -0.80600
C302        C  0.28309368  0.74261387  0.82472504     0.94600
O303        O  0.32692498  0.81111770  0.88207302    -0.78600
O304        O  0.22185792  0.65807428  0.88458108    -0.83800
C305        C  0.25270089  0.68730768  0.98152557     0.97300
C306        C  0.23287181  0.61335618  0.89403797     1.03200
O307        O  0.29688391  0.66874075  0.97756663    -0.79400
C308        C  0.29055452  0.82773263  0.90070655     1.01500
Fe309      Fe  0.98448323  0.41344600  0.87500868     1.65800
Fe310      Fe  0.96489723  0.53274487  0.85065528     1.73200
Fe311      Fe  0.88694613  0.44055969  0.82055867     1.54400
O312        O  0.92527133  0.37389242  0.80365140    -0.83100
O313        O  0.89477169  0.55097485  0.86836482    -0.81500
O314        O  0.00171554  0.37739496  0.82910369    -0.85700
O315        O  0.92312496  0.36584576  0.88544378    -0.80500
O316        O  0.91151726  0.47728536  0.77460930    -0.82300
O317        O  0.98671266  0.52745106  0.90435338    -0.85000
C318        C  0.87693577  0.37840553  0.88843391     0.95700
C319        C  0.97120680  0.35861642  0.80671368     1.03200
O320        O  0.94557849  0.46241672  0.84798821    -1.14000
O321        O  0.03693957  0.51685295  0.83403066    -0.76400
O322        O  0.05227923  0.45401087  0.87139429    -0.79900
O323        O  0.85641597  0.40687555  0.86550417    -0.80600
C324        C  0.06732212  0.49152211  0.85301911     0.94600
O325        O  0.96802154  0.44888896  0.92120901    -0.78600
O326        O  0.94505807  0.54757374  0.79767991    -0.83800
C327        C  0.85093894  0.53846020  0.85797955     0.97300
C328        C  0.92824568  0.52243141  0.77117557     1.03200
O329        O  0.84313658  0.50349142  0.83520450    -0.79400
C330        C  0.98029250  0.49398734  0.92848798     1.01500
Fe331      Fe  0.03344972  0.61806629  0.12764031     1.65800
Fe332      Fe  0.04658134  0.49750208  0.15208134     1.73200
Fe333      Fe  0.13044895  0.58533144  0.18095426     1.54400
O334        O  0.16178920  0.61902617  0.13602969    -0.83100
O335        O  0.06732905  0.48085940  0.20470293    -0.81500
O336        O  0.09669365  0.66253100  0.11591033    -0.85700
O337        O  0.01943862  0.65502991  0.17360229    -0.80500
O338        O  0.17027269  0.52038238  0.16504661    -0.82300
O339        O  0.97625640  0.51832949  0.16985676    -0.85000
C340        C  0.05059455  0.67080177  0.19664011     0.95700
C341        C  0.14268633  0.64910559  0.11344442     1.03200
O342        O  0.07025350  0.56676171  0.15414244    -1.14000
O343        O  0.02310354  0.50418506  0.09873820    -0.76400
O344        O  0.04604082  0.58141615  0.08133154    -0.79900
O345        O  0.09571149  0.65316991  0.19937176    -0.80600
C346        C  0.03026233  0.53726366  0.07443158     0.94600
O347        O  0.96388437  0.58173140  0.13240043    -0.78600
O348        O  0.11512535  0.47436393  0.13355431    -0.83800
C349        C  0.08697609  0.50476350  0.23079461     0.97300
C350        C  0.15990663  0.48468527  0.14330294     1.03200
O351        O  0.10564867  0.54905544  0.22702590    -0.79400
C352        C  0.94710388  0.54535704  0.15105310     1.01500
C353        C  0.01070357  0.55337472  0.97561636    -0.14800
C354        C  0.99026666  0.50630278  0.96605884     0.07300
C355        C  0.98290745  0.46925478  0.99250857    -0.14800
C356        C  0.99646976  0.47883674  0.02767358    -0.14800
C357        C  0.01763058  0.52566151  0.03712433     0.07300
C358        C  0.02428316  0.56293832  0.01075094    -0.14800
H359        H  0.01705955  0.58253279  0.95586770     0.11300
H360        H  0.96718245  0.43246000  0.98600094     0.11300
H361        H  0.99030616  0.44963018  0.04741839     0.11300
H362        H  0.04010473  0.59970395  0.01719695     0.11300
C363        C  0.17770008  0.57988495  0.84616083    -0.14800
C364        C  0.20077149  0.57258796  0.87940716     0.07300
C365        C  0.18697249  0.53041404  0.89986886    -0.14800
C366        C  0.14645152  0.49966465  0.88912058    -0.14800
C367        C  0.11942752  0.51087300  0.85781718     0.07300
C368        C  0.13748526  0.54931167  0.83544275    -0.14800
H369        H  0.18848682  0.61155647  0.82948697     0.11300
H370        H  0.20440662  0.52387435  0.92549665     0.11300
H371        H  0.13339220  0.47025338  0.90695047     0.11300
H372        H  0.11791109  0.55849298  0.81099467     0.11300
C373        C  0.17752959  0.70202210  0.02215264    -0.14800
C374        C  0.22726031  0.68404896  0.01724570     0.07300
C375        C  0.25060957  0.65928413  0.04607037    -0.14800
C376        C  0.22427940  0.65056523  0.07800570    -0.14800
C377        C  0.17375202  0.66646995  0.08227375     0.07300
C378        C  0.15126342  0.69340893  0.05409425    -0.14800
H379        H  0.15805206  0.72126004  0.00077810     0.11300
H380        H  0.28874959  0.64485317  0.04353354     0.11300
H381        H  0.24296242  0.62947924  0.09887512     0.11300
H382        H  0.11238817  0.70599719  0.05606687     0.11300
C383        C  0.29816890  0.75795539  0.72551138    -0.14800
C384        C  0.25272759  0.78169932  0.71614480     0.07300
C385        C  0.21656314  0.79155304  0.74273677    -0.14800
C386        C  0.22570189  0.77788966  0.77795462    -0.14800
C387        C  0.27117095  0.75409773  0.78728863     0.07300
C388        C  0.30726786  0.74425244  0.76066692    -0.14800
H389        H  0.32646960  0.74933412  0.70561707     0.11300
H390        H  0.18096320  0.80968294  0.73633619     0.11300
H391        H  0.19742803  0.78644687  0.79788422     0.11300
H392        H  0.34286516  0.72606286  0.76697519     0.11300
C393        C  0.32486373  0.59561861  0.59648030    -0.14800
C394        C  0.31928560  0.57439318  0.63047151     0.07300
C395        C  0.27824539  0.58913352  0.65161517    -0.14800
C396        C  0.24704298  0.62902629  0.64062191    -0.14800
C397        C  0.25672117  0.65442725  0.60840472     0.07300
C398        C  0.29382252  0.63520049  0.58551357    -0.14800
H399        H  0.35564637  0.58400457  0.57935098     0.11300
H400        H  0.27308884  0.57308235  0.67784798     0.11300
H401        H  0.21873529  0.64310658  0.65887898     0.11300
H402        H  0.30177414  0.65358801  0.56039392     0.11300
C403        C  0.40887961  0.52507606  0.79663592    -0.14800
C404        C  0.43245985  0.54913481  0.76758932     0.07300
C405        C  0.44912421  0.59948669  0.77229647    -0.14800
C406        C  0.44032630  0.62563413  0.80425467    -0.14800
C407        C  0.41448288  0.60241484  0.83265675     0.07300
C408        C  0.39995146  0.55130608  0.82860233    -0.14800
H409        H  0.39549575  0.48643224  0.79425071     0.11300
H410        H  0.46741736  0.61952543  0.75074544     0.11300
H411        H  0.45182757  0.66495656  0.80606058     0.11300
H412        H  0.37976471  0.53204440  0.84967087     0.11300
C413        C  0.50870277  0.48025780  0.47582526    -0.14800
C414        C  0.52893399  0.52742053  0.46632610     0.07300
C415        C  0.53590999  0.56457314  0.49277395    -0.14800
C416        C  0.52256688  0.55480006  0.52795765    -0.14800
C417        C  0.50197399  0.50771176  0.53737500     0.07300
C418        C  0.49530974  0.47053035  0.51093011    -0.14800
H419        H  0.50259761  0.45102706  0.45607633     0.11300
H420        H  0.55140384  0.60145957  0.48628037     0.11300
H421        H  0.52867042  0.58395662  0.54776472     0.11300
H422        H  0.47982949  0.43360820  0.51732034     0.11300
C423        C  0.51837141  0.81782422  0.97003429    -0.14800
C424        C  0.56016586  0.78585180  0.96608687     0.07300
C425        C  0.55297836  0.73312884  0.97008495    -0.14800
C426        C  0.50420205  0.71239265  0.97020687    -0.14800
C427        C  0.46232329  0.74433519  0.96663155     0.07300
C428        C  0.46958636  0.79707939  0.97051604    -0.14800
H429        H  0.52267766  0.85846616  0.96739473     0.11300
H430        H  0.58485799  0.70756907  0.96784788     0.11300
H431        H  0.49985538  0.67174032  0.96764962     0.11300
H432        H  0.43765272  0.82262331  0.96856688     0.11300
C433        C  0.76819859  0.58362459  0.85179887    -0.14800
C434        C  0.80878986  0.56785943  0.87296581     0.07300
C435        C  0.81411363  0.58787185  0.90737224    -0.14800
C436        C  0.78393274  0.62797665  0.91854294    -0.14800
C437        C  0.74784101  0.64862995  0.89549184     0.07300
C438        C  0.73768913  0.62383914  0.86307472    -0.14800
H439        H  0.76322935  0.56848289  0.82527178     0.11300
H440        H  0.84455391  0.57536266  0.92451355     0.11300
H441        H  0.79210907  0.64581613  0.94383716     0.11300
H442        H  0.70996652  0.63890366  0.84475159     0.11300
C443        C  0.97256451  0.79780297  0.53286757    -0.14800
C444        C  0.96540770  0.74508563  0.53667905     0.07300
C445        C  0.00720599  0.71310275  0.53267994    -0.14800
C446        C  0.05599566  0.73378238  0.53231588    -0.14800
C447        C  0.06325500  0.78649778  0.53612765     0.07300
C448        C  0.02135598  0.81848107  0.53264847    -0.14800
H449        H  0.94068266  0.82334893  0.53514778     0.11300
H450        H  0.00287918  0.67244207  0.53515912     0.11300
H451        H  0.08792194  0.70822656  0.53421809     0.11300
H452        H  0.02573487  0.85913678  0.53514805     0.11300
C453        C  0.93885168  0.62358046  0.69870839    -0.14800
C454        C  0.91363816  0.60091312  0.66982461     0.07300
C455        C  0.89683255  0.55047618  0.67380165    -0.14800
C456        C  0.90328151  0.52430582  0.70604942    -0.14800
C457        C  0.92655163  0.54779147  0.73543944     0.07300
C458        C  0.94517257  0.59749493  0.73094659    -0.14800
H459        H  0.95187849  0.66242905  0.69697747     0.11300
H460        H  0.87682066  0.53174737  0.65239321     0.11300
H461        H  0.88835943  0.48621219  0.70831379     0.11300
H462        H  0.96333942  0.61703955  0.75279052     0.11300
C463        C  0.80923231  0.74019925  0.74275089    -0.14800
C464        C  0.77283493  0.74838488  0.71600781     0.07300
C465        C  0.72593502  0.76914545  0.72532767    -0.14800
C466        C  0.71584961  0.78205042  0.76051322    -0.14800
C467        C  0.75241075  0.77440275  0.78721159     0.07300
C468        C  0.79912175  0.75308164  0.77798032    -0.14800
H469        H  0.84587484  0.72422299  0.73644310     0.11300
H470        H  0.69725282  0.77614549  0.70537071     0.11300
H471        H  0.67920856  0.79807216  0.76675301     0.11300
H472        H  0.82779929  0.74617873  0.79796073     0.11300
C473        C  0.69246285  0.52727417  0.60119816    -0.14800
C474        C  0.70811304  0.56808749  0.62231139     0.07300
C475        C  0.68813162  0.57339576  0.65669548    -0.14800
C476        C  0.64832389  0.54277886  0.66797774    -0.14800
C477        C  0.62791104  0.50627306  0.64504944     0.07300
C478        C  0.65253703  0.49635268  0.61257660    -0.14800
H479        H  0.70761143  0.52228508  0.57470919     0.11300
H480        H  0.70060381  0.60397245  0.67381807     0.11300
H481        H  0.63060369  0.55078574  0.69329131     0.11300
H482        H  0.63762424  0.46833997  0.59432656     0.11300
C483        C  0.67915630  0.69998713  0.48144921    -0.14800
C484        C  0.73015860  0.68530584  0.48526428     0.07300
C485        C  0.75483304  0.66517119  0.45527415    -0.14800
C486        C  0.72867180  0.65758823  0.42313347    -0.14800
C487        C  0.67703252  0.67007801  0.41987048     0.07300
C488        C  0.65306088  0.69252506  0.44931163    -0.14800
H489        H  0.65863948  0.71557852  0.50377753     0.11300
H490        H  0.79399796  0.65347451  0.45696988     0.11300
H491        H  0.74848688  0.63998221  0.40122794     0.11300
H492        H  0.61327976  0.70216355  0.44813376     0.11300
C493        C  0.61722493  0.50442919  0.20692372    -0.14800
C494        C  0.59664108  0.47999427  0.23687762     0.07300
C495        C  0.58108528  0.42911478  0.23302867    -0.14800
C496        C  0.58790532  0.40296711  0.20081763    -0.14800
C497        C  0.61051311  0.42679285  0.17134585     0.07300
C498        C  0.62411280  0.47825906  0.17473631    -0.14800
H499        H  0.62963538  0.54346700  0.20863793     0.11300
H500        H  0.56511144  0.40878596  0.25533959     0.11300
H501        H  0.57745382  0.36331120  0.19954608     0.11300
H502        H  0.64196641  0.49796407  0.15284981     0.11300
C503        C  0.83359902  0.46240148  0.15846473    -0.14800
C504        C  0.81444874  0.46639269  0.12375814     0.07300
C505        C  0.83047039  0.50640221  0.10208687    -0.14800
C506        C  0.87023636  0.53762410  0.11326549    -0.14800
C507        C  0.89432324  0.52871330  0.14607299     0.07300
C508        C  0.87328874  0.49333392  0.16955776    -0.14800
H509        H  0.82082030  0.43239486  0.17594229     0.11300
H510        H  0.81596997  0.51028702  0.07531194     0.11300
H511        H  0.88568383  0.56473536  0.09459560     0.11300
H512        H  0.89065885  0.48616855  0.19513203     0.11300
C513        C  0.87195138  0.34090490  0.95000804    -0.14800
C514        C  0.84733115  0.36245172  0.92050910     0.07300
C515        C  0.79579394  0.37515858  0.92408091    -0.14800
C516        C  0.77024834  0.36828783  0.95649910    -0.14800
C517        C  0.79549929  0.34874024  0.98643943     0.07300
C518        C  0.84649603  0.33420762  0.98242233    -0.14800
H519        H  0.91170981  0.33124987  0.94858952     0.11300
H520        H  0.77555746  0.39222728  0.90214552     0.11300
H521        H  0.73108196  0.37991614  0.95839644     0.11300
H522        H  0.86742912  0.31908032  0.00472760     0.11300
C523        C  0.73586485  0.39676671  0.41849545    -0.14800
C524        C  0.77297045  0.37774139  0.39553804     0.07300
C525        C  0.78334483  0.40403783  0.36376484    -0.14800
C526        C  0.75272564  0.44459531  0.35314212    -0.14800
C527        C  0.71160488  0.45921951  0.37424192     0.07300
C528        C  0.70550986  0.43713822  0.40795183    -0.14800
H529        H  0.72737554  0.37772645  0.44328651     0.11300
H530        H  0.81172052  0.39020486  0.34547285     0.11300
H531        H  0.75830856  0.46121183  0.32712701     0.11300
H532        H  0.67465735  0.44856286  0.42507885     0.11300
C533        C  0.72857590  0.27731870  0.27804017    -0.14800
C534        C  0.77434327  0.25375196  0.28686929     0.07300
C535        C  0.81052080  0.24518511  0.26010768    -0.14800
C536        C  0.80088549  0.25932611  0.22514588    -0.14800
C537        C  0.75484240  0.28220432  0.21621258     0.07300
C538        C  0.71891750  0.29144211  0.24303864    -0.14800
H539        H  0.70038155  0.28512845  0.29815842     0.11300
H540        H  0.84643330  0.22743661  0.26611918     0.11300
H541        H  0.82908280  0.25143485  0.20504605     0.11300
H542        H  0.68300344  0.30915267  0.23695749     0.11300
C543        C  0.06407367  0.25879592  0.78355584    -0.14800
C544        C  0.03270443  0.21631505  0.78714973     0.07300
C545        C  0.97993936  0.22267949  0.78347135    -0.14800
C546        C  0.95865351  0.27117946  0.78370469    -0.14800
C547        C  0.99005209  0.31363932  0.78738442     0.07300
C548        C  0.04279120  0.30729588  0.78359852    -0.14800
H549        H  0.10475265  0.25511838  0.78597706     0.11300
H550        H  0.95483858  0.19029411  0.78547242     0.11300
H551        H  0.91798573  0.27483851  0.78621451     0.11300
H552        H  0.06790685  0.33966408  0.78566418     0.11300
C553        C  0.88508243  0.97979711  0.83501863    -0.14800
C554        C  0.90330380  0.01834656  0.85727265     0.07300
C555        C  0.87696613  0.02910411  0.88892730    -0.14800
C556        C  0.83695171  0.99798785  0.90002521    -0.14800
C557        C  0.82292428  0.95586010  0.87957451     0.07300
C558        C  0.84535539  0.94883504  0.84609426    -0.14800
H559        H  0.90416890  0.97089175  0.81034372     0.11300
H560        H  0.89020487  0.05851514  0.90671483     0.11300
H561        H  0.82002815  0.00431006  0.92583624     0.11300
H562        H  0.83436862  0.91719272  0.82943572     0.11300
C563        C  0.25385506  0.94575280  0.85191872    -0.14800
C564        C  0.21310840  0.96154339  0.87289396     0.07300
C565        C  0.20736613  0.94135714  0.90721209    -0.14800
C566        C  0.23730448  0.90108292  0.91844223    -0.14800
C567        C  0.27363185  0.88049154  0.89556489     0.07300
C568        C  0.28414315  0.90540918  0.86326579    -0.14800
H569        H  0.25913169  0.96099903  0.82546274     0.11300
H570        H  0.17678231  0.95387195  0.92421048     0.11300
H571        H  0.22884181  0.88314909  0.94364021     0.11300
H572        H  0.31204670  0.89039740  0.84507192     0.11300
C573        C  0.11962354  0.00660841  0.70536442    -0.14800
C574        C  0.09735237  0.98225739  0.73476958     0.07300
C575        C  0.08064669  0.93187864  0.73028404    -0.14800
C576        C  0.08789282  0.90605043  0.69803965    -0.14800
C577        C  0.11218469  0.92964524  0.66915378     0.07300
C578        C  0.12702348  0.98068716  0.67311319    -0.14800
H579        H  0.13303339  0.04526119  0.70761517     0.11300
H580        H  0.06336127  0.91163598  0.75214689     0.11300
H581        H  0.07641259  0.86671246  0.69632569     0.11300
H582        H  0.14621034  0.00015447  0.65167969     0.11300
C583        C  0.04512978  0.80598548  0.22030348    -0.14800
C584        C  0.99244850  0.81310868  0.21660867     0.07300
C585        C  0.96039883  0.77136014  0.22117469    -0.14800
C586        C  0.98090031  0.72252234  0.22170914    -0.14800
C587        C  0.03343615  0.71524521  0.21725322     0.07300
C588        C  0.06561302  0.75715131  0.22046209    -0.14800
H589        H  0.07074449  0.83786759  0.21763899     0.11300
H590        H  0.91977089  0.77565450  0.21883609     0.11300
H591        H  0.95522925  0.69053909  0.22007611     0.11300
H592        H  0.10614513  0.75275893  0.21749769     0.11300
C593        C  0.84517385  0.82600682  0.02200351    -0.14800
C594        C  0.79537900  0.84392749  0.01734295     0.07300
C595        C  0.77216501  0.86828886  0.04638437    -0.14800
C596        C  0.79877590  0.87680716  0.07827423    -0.14800
C597        C  0.84943262  0.86109345  0.08223911     0.07300
C598        C  0.87170134  0.83442420  0.05386412    -0.14800
H599        H  0.86454482  0.80703710  0.00047244     0.11300
H600        H  0.73395582  0.88261620  0.04403874     0.11300
H601        H  0.78024489  0.89765925  0.09931708     0.11300
H602        H  0.91063913  0.82195453  0.05560085     0.11300
C603        C  0.83020182  0.09831847  0.09564246    -0.14800
C604        C  0.82299292  0.07469102  0.12870321     0.07300
C605        C  0.78067769  0.08765590  0.14918531    -0.14800
C606        C  0.74948801  0.12778241  0.13860166    -0.14800
C607        C  0.76035606  0.15522857  0.10741638     0.07300
C608        C  0.79916750  0.13812390  0.08507674    -0.14800
H609        H  0.86199015  0.08820148  0.07895604     0.11300
H610        H  0.77422144  0.06978602  0.17468839     0.11300
H611        H  0.71989305  0.14018458  0.15644014     0.11300
H612        H  0.80817753  0.15811808  0.06074717     0.11300
C613        C  0.95103307  0.09979640  0.27010316    -0.14800
C614        C  0.93533395  0.04900144  0.26600566     0.07300
C615        C  0.91369850  0.02474144  0.29569294    -0.14800
C616        C  0.90567760  0.05108529  0.32772726    -0.14800
C617        C  0.91911453  0.10258071  0.33122974     0.07300
C618        C  0.94306711  0.12610692  0.30213743    -0.14800
H619        H  0.96783004  0.12001670  0.24804191     0.11300
H620        H  0.90120452  0.98574726  0.29382204     0.11300
H621        H  0.88696484  0.03154308  0.34933054     0.11300
H622        H  0.95362541  0.16573062  0.30349434     0.11300
C623        C  0.02711771  0.04904106  0.02699853    -0.14800
C624        C  0.00456516  0.00280767  0.03624620     0.07300
C625        C  0.99610194  0.96622820  0.00962147    -0.14800
C626        C  0.00943767  0.97587659  0.97445532    -0.14800
C627        C  0.03143930  0.02232870  0.96514901     0.07300
C628        C  0.04044626  0.05869441  0.99182742    -0.14800
H629        H  0.03469275  0.07767793  0.04692968     0.11300
H630        H  0.97908542  0.92995044  0.01590892     0.11300
H631        H  0.00172463  0.94730195  0.95450303     0.11300
H632        H  0.05740837  0.09499752  0.98551252     0.11300
C633        C  0.46170311  0.27218626  0.71913514    -0.14800
C634        C  0.49343425  0.31437878  0.71552669     0.07300
C635        C  0.54612235  0.30760625  0.71947718    -0.14800
C636        C  0.56704732  0.25894928  0.71926194    -0.14800
C637        C  0.53533377  0.21678333  0.71540353     0.07300
C638        C  0.48262988  0.22352338  0.71921901    -0.14800
H639        H  0.42107585  0.27618007  0.71653819     0.11300
H640        H  0.57148891  0.33978729  0.71750836     0.11300
H641        H  0.60768703  0.25497610  0.71676382     0.11300
H642        H  0.45728068  0.19135090  0.71705216     0.11300
C643        C  0.37586566  0.03552547  0.61271121    -0.14800
C644        C  0.40124930  0.02539590  0.64486703     0.07300
C645        C  0.38122319  0.98889880  0.66795422    -0.14800
C646        C  0.34103126  0.95845811  0.65707325    -0.14800
C647        C  0.32022726  0.96392296  0.62292855     0.07300
C648        C  0.33551524  0.00479155  0.60173850    -0.14800
H649        H  0.39044236  0.06355616  0.59436495     0.11300
H650        H  0.39950483  0.98074296  0.69305986     0.11300
H651        H  0.32890087  0.92786753  0.67428152     0.11300
H652        H  0.31974205  0.00993881  0.57543609     0.11300
C653        C  0.72870265  0.14930100  0.57723747    -0.14800
C654        C  0.67844176  0.16603894  0.58158598     0.07300
C655        C  0.65588564  0.19228671  0.55313323    -0.14800
C656        C  0.68193449  0.19975197  0.52097448    -0.14800
C657        C  0.73150254  0.18127213  0.51611770     0.07300
C658        C  0.75481592  0.15687041  0.54508200    -0.14800
H659        H  0.74735906  0.12853441  0.59827239     0.11300
H660        H  0.61717151  0.20535066  0.55513705     0.11300
H661        H  0.66248454  0.21871919  0.49946818     0.11300
H662        H  0.79278110  0.14197981  0.54254326     0.11300
C663        C  0.70465894  0.93658577  0.59595842    -0.14800
C664        C  0.71023806  0.95774699  0.62998194     0.07300
C665        C  0.75130453  0.94304909  0.65112684    -0.14800
C666        C  0.78244173  0.90312317  0.64015179    -0.14800
C667        C  0.77261808  0.87763785  0.60797512     0.07300
C668        C  0.73562131  0.89695022  0.58501666    -0.14800
H669        H  0.67386787  0.94820929  0.57882028     0.11300
H670        H  0.75647731  0.95909317  0.67737313     0.11300
H671        H  0.81071950  0.88901540  0.65843472     0.11300
H672        H  0.72759396  0.87851826  0.55990875     0.11300
C673        C  0.62632559  0.97903332  0.82828742    -0.14800
C674        C  0.61107506  0.92809595  0.83205752     0.07300
C675        C  0.58575045  0.90520225  0.80328253    -0.14800
C676        C  0.57806335  0.93152073  0.77127707    -0.14800
C677        C  0.59535984  0.98172019  0.76690440     0.07300
C678        C  0.61850003  0.00544467  0.79626731    -0.14800
H679        H  0.64619623  0.99800721  0.84965207     0.11300
H680        H  0.57378389  0.86599704  0.80486336     0.11300
H681        H  0.56006884  0.91174084  0.74946352     0.11300
H682        H  0.63233803  0.04395200  0.79412095     0.11300
C683        C  0.46203319  0.77126106  0.28125647    -0.14800
C684        C  0.49387899  0.81335169  0.28500312     0.07300
C685        C  0.54650566  0.80650757  0.28077797    -0.14800
C686        C  0.56732688  0.75780517  0.28091306    -0.14800
C687        C  0.53554119  0.71572720  0.28494830     0.07300
C688        C  0.48285156  0.72255340  0.28106934    -0.14800
H689        H  0.42143432  0.77531938  0.28398270     0.11300
H690        H  0.57195231  0.83862650  0.28277939     0.11300
H691        H  0.60796882  0.75376695  0.28336105     0.11300
H692        H  0.45743468  0.69044568  0.28327944     0.11300
C693        C  0.35050791  0.83170409  0.48228608    -0.14800
C694        C  0.29964407  0.84697912  0.48596714     0.07300
C695        C  0.27541261  0.86746403  0.45590379    -0.14800
C696        C  0.30179402  0.87463899  0.42381906    -0.14800
C697        C  0.35325642  0.86138135  0.42063174     0.07300
C698        C  0.37683683  0.83875749  0.45018209    -0.14800
H699        H  0.37070856  0.81583304  0.50466795     0.11300
H700        H  0.23639510  0.87966474  0.45747619     0.11300
H701        H  0.28226406  0.89244683  0.40186025     0.11300
H702        H  0.41647987  0.82855928  0.44908587     0.11300
C703        C  0.64748259  0.04267654  0.33340736    -0.14800
C704        C  0.62916347  0.00467343  0.35604177     0.07300
C705        C  0.65567544  0.99422691  0.38768479    -0.14800
C706        C  0.69550278  0.02571478  0.39862648    -0.14800
C707        C  0.70907423  0.06778760  0.37799090     0.07300
C708        C  0.68697607  0.07401079  0.34433041    -0.14800
H709        H  0.62832445  0.05120709  0.30868202     0.12900
H710        H  0.64243498  0.96512118  0.40569564     0.11300
H711        H  0.71231162  0.01996005  0.42455319     0.11300
H712        H  0.69772384  0.10555307  0.32752686     0.11300
C713        C  0.49511516  0.96653294  0.49220707    -0.14800
C714        C  0.50320859  0.00313917  0.46557325     0.07300
C715        C  0.52426374  0.05003629  0.47487623    -0.14800
C716        C  0.53710494  0.06012685  0.51005160    -0.14800
C717        C  0.52906464  0.02355322  0.53669571     0.07300
C718        C  0.50794081  0.97664282  0.52741727    -0.14800
H719        H  0.47901635  0.92984452  0.48586648     0.11300
H720        H  0.53128895  0.07879144  0.45495456     0.11300
H721        H  0.55315471  0.09684295  0.51635425     0.11300
H722        H  0.50086432  0.94793821  0.54736912     0.11300
C723        C  0.47101752  0.29554246  0.03354260    -0.14800
C724        C  0.46366932  0.24288782  0.03747197     0.07300
C725        C  0.50549256  0.21075440  0.03417114    -0.14800
C726        C  0.55431281  0.23129025  0.03437990    -0.14800
C727        C  0.56154945  0.28400851  0.03799776     0.07300
C728        C  0.51983049  0.31607826  0.03388279    -0.14800
H729        H  0.43914733  0.32119394  0.03525332     0.11300
H730        H  0.50101771  0.17011729  0.03671697     0.11300
H731        H  0.58613928  0.20567800  0.03670178     0.11300
H732        H  0.52424451  0.35675644  0.03616784     0.11300
C733        C  0.27482205  0.40010961  0.13830679    -0.14800
C734        C  0.26383532  0.37239427  0.10724443     0.07300
C735        C  0.22432649  0.38884797  0.08522114    -0.14800
C736        C  0.19287582  0.42823658  0.09597677    -0.14800
C737        C  0.20040290  0.45223165  0.12888287     0.07300
C738        C  0.24326255  0.43988615  0.14905145    -0.14800
H739        H  0.30491398  0.38820695  0.15591839     0.11300
H740        H  0.21516711  0.36864213  0.06098750     0.11300
H741        H  0.16068638  0.43785668  0.07950740     0.11300
H742        H  0.25000895  0.45805865  0.17442562     0.11300
C743        C  0.40282467  0.05046404  0.17469893    -0.14800
C744        C  0.41626815  0.10191295  0.17092520     0.07300
C745        C  0.43987812  0.12593479  0.19996837    -0.14800
C746        C  0.44798699  0.09993558  0.23211135    -0.14800
C747        C  0.43273432  0.04902110  0.23632832     0.07300
C748        C  0.41097111  0.02446366  0.20680622    -0.14800
H749        H  0.38420146  0.03060346  0.15317788     0.11300
H750        H  0.45022344  0.16559720  0.19842003     0.11300
H751        H  0.46472667  0.12039758  0.25410490     0.11300
H752        H  0.39865245  0.98542687  0.20881374     0.11300
C753        C  0.19048027  0.06550704  0.15833076    -0.14800
C754        C  0.21018099  0.06138899  0.12379608     0.07300
C755        C  0.19428353  0.02141331  0.10200220    -0.14800
C756        C  0.15416574  0.99039898  0.11283626    -0.14800
C757        C  0.12961429  0.99945058  0.14543066     0.07300
C758        C  0.15047267  0.03476317  0.16908648    -0.14800
H759        H  0.20311317  0.09547120  0.17591888     0.11300
H760        H  0.20919042  0.01740897  0.07535998     0.11300
H761        H  0.13888753  0.96332047  0.09405269     0.11300
H762        H  0.13277079  0.04202417  0.19452366     0.11300
C763        C  0.17809495  0.19493550  0.98248132    -0.14800
C764        C  0.22867091  0.17893941  0.98652867     0.07300
C765        C  0.25315975  0.15836324  0.95662249    -0.14800
C766        C  0.22726115  0.15197124  0.92424994    -0.14800
C767        C  0.17608071  0.16615214  0.92064996     0.07300
C768        C  0.15227037  0.18867624  0.95011168    -0.14800
H769        H  0.15774681  0.21095349  0.00473455     0.11300
H770        H  0.29196602  0.14557571  0.95851464     0.11300
H771        H  0.24690793  0.13408560  0.90237931     0.11300
H772        H  0.11282567  0.19953273  0.94869275     0.11300
C773        C  0.97317660  0.29782832  0.46893308    -0.14800
C774        C  0.96603514  0.24503104  0.46548070     0.07300
C775        C  0.00781285  0.21314029  0.46985602    -0.14800
C776        C  0.05658396  0.23385763  0.47017248    -0.14800
C777        C  0.06384127  0.28649631  0.46582131     0.07300
C778        C  0.02194625  0.31853753  0.46894466    -0.14800
H779        H  0.94130216  0.32334268  0.46639773     0.11300
H780        H  0.00351619  0.17244024  0.46768313     0.11300
H781        H  0.08851675  0.20826672  0.46859344     0.11300
H782        H  0.02630322  0.35913815  0.46603656     0.11300
C783        C  0.12144863  0.47733269  0.32772157    -0.14800
C784        C  0.10893098  0.42563317  0.33132035     0.07300
C785        C  0.08462483  0.40172002  0.30250579    -0.14800
C786        C  0.07544441  0.42793600  0.27059089    -0.14800
C787        C  0.09029558  0.47896351  0.26637920     0.07300
C788        C  0.11224954  0.50354679  0.29583134    -0.14800
H789        H  0.14034660  0.49718530  0.34912685     0.11300
H790        H  0.07474378  0.36193109  0.30396855     0.11300
H791        H  0.05846870  0.40748232  0.24868291     0.11300
H792        H  0.12411843  0.54272603  0.29386354     0.11300
C793        C  0.27947996  0.08581644  0.35420424    -0.14800
C794        C  0.32175259  0.07229550  0.37455249     0.07300
C795        C  0.32905801  0.09527399  0.40786450    -0.14800
C796        C  0.29833629  0.13518510  0.41874645    -0.14800
C797        C  0.25967725  0.15293615  0.39651508     0.07300
C798        C  0.24854634  0.12594937  0.36514159    -0.14800
H799        H  0.27296589  0.06850562  0.32850629     0.11300
H800        H  0.36084548  0.08472637  0.42444157     0.11300
H801        H  0.30754707  0.15481717  0.44320106     0.11300
H802        H  0.21905662  0.13883674  0.34737130     0.11300
C803        C  0.21667967  0.28065714  0.26092865    -0.14800
C804        C  0.25429836  0.27466295  0.28710607     0.07300
C805        C  0.30097640  0.25360967  0.27761017    -0.14800
C806        C  0.31006943  0.23946540  0.24253321    -0.14800
C807        C  0.27265487  0.24616182  0.21628053     0.07300
C808        C  0.22575293  0.26650751  0.22590085    -0.14800
H809        H  0.18001120  0.29639064  0.26744501     0.11300
H810        H  0.33037123  0.24787384  0.29725738     0.11300
H811        H  0.34673678  0.22377992  0.23593600     0.11300
H812        H  0.19634936  0.27235392  0.20627704     0.11300
C813        C  0.33404375  0.50476822  0.39716040    -0.14800
C814        C  0.32093103  0.46223005  0.37682284     0.07300
C815        C  0.34407922  0.45507156  0.34360629    -0.14800
C816        C  0.38425954  0.48575056  0.33307617    -0.14800
C817        C  0.40213202  0.52408489  0.35563480     0.07300
C818        C  0.37450892  0.53565152  0.38658371    -0.14800
H819        H  0.31641446  0.51129310  0.42271338     0.11300
H820        H  0.33370997  0.42318765  0.32698052     0.11300
H821        H  0.40423294  0.47643315  0.30882136     0.11300
H822        H  0.38732727  0.56512913  0.40446718     0.11300
C823        C  0.34860546  0.33285155  0.52060965    -0.14800
C824        C  0.29876915  0.35058653  0.51578958     0.07300
C825        C  0.27496553  0.37423294  0.54485885    -0.14800
C826        C  0.30087341  0.38181549  0.57710978    -0.14800
C827        C  0.35137768  0.36581080  0.58142844     0.07300
C828        C  0.37443613  0.34031396  0.55285528    -0.14800
H829        H  0.36840914  0.31446450  0.49902389     0.11300
H830        H  0.23674093  0.38847451  0.54235255     0.11300
H831        H  0.28183406  0.40196307  0.59826497     0.11300
H832        H  0.41335508  0.32785516  0.55484444     0.11300
loop_ 
_geom_bond_atom_site_label_1 
_geom_bond_atom_site_label_2 
_geom_bond_distance 
_geom_bond_site_symmetry_2 
_ccdc_geom_bond_type 
Fe1          O17   2.090       .  S
Fe1           O7   2.024       .  S
Fe1          O14   2.018       .  S
Fe1           O6   2.094       .  S
Fe1          O12   1.942       .  S
Fe2           O5   2.101       .  S
Fe2           O9   2.050       .  S
Fe2          O13   2.108       .  S
Fe2          O18   2.033       .  S
Fe2          O12   1.931       .  S
Fe3          O21   2.087       .  S
Fe3           O8   2.102       .  S
Fe3          O15   2.129       .  S
Fe3           O4   2.078       .  S
Fe3          O12   1.947       .  S
O4           C11   1.268       .  A
O5           C19   1.277       .  A
O6           C11   1.272       .  A
O7           C10   1.266       .  A
O8           C20   1.277       .  A
O9           C22   1.267       .  A
C10          O15   1.285       .  A
C10         C777   1.479       .  S
C11         C784   1.504       .  S
O13          C16   1.279       .  A
O14          C16   1.263       .  A
C16         C804   1.473       .  S
O17          C22   1.271       .  A
O18          C20   1.267       .  A
C19          O21   1.276       .  A
C19         C824   1.505       .  S
C20         C814   1.475       .  S
C22         C797   1.479       .  S
Fe23         O39   2.019       .  S
Fe23         O29   2.094       .  S
Fe23         O36   2.095       .  S
Fe23         O28   2.028       .  S
Fe23         O34   1.940       .  S
Fe24         O27   2.030       .  S
Fe24         O31   2.105       .  S
Fe24         O35   2.046       .  S
Fe24         O40   2.101       .  S
Fe24         O34   1.926       .  S
Fe25         O43   2.097       .  S
Fe25         O30   2.088       .  S
Fe25         O37   2.076       .  S
Fe25         O26   2.124       .  S
Fe25         O34   1.945       .  S
O26          C33   1.283       .  A
O27          C41   1.266       .  A
O28          C33   1.266       .  A
O29          C32   1.273       .  A
O30          C42   1.277       .  A
O31          C44   1.278       .  A
C32          O37   1.269       .  A
C32         C744   1.503       .  S
C33         C724   1.478       .  S
O35          C38   1.266       .  A
O36          C38   1.273       .  A
C38         C734   1.479       .  S
O39          C44   1.262       .  A
O40          C42   1.278       .  A
C41          O43   1.276       .  A
C41         C754   1.470       .  S
C42         C764   1.504   1_554  S
C44         C807   1.473       .  S
Fe45         O61   2.021       .  S
Fe45         O51   2.091       .  S
Fe45         O58   2.090       .  S
Fe45         O50   2.024       .  S
Fe45         O56   1.945       .  S
Fe46         O49   2.032       .  S
Fe46         O53   2.107       .  S
Fe46         O57   2.049       .  S
Fe46         O62   2.102       .  S
Fe46         O56   1.929   1_545  S
Fe47         O65   2.104   1_565  S
Fe47         O52   2.087       .  S
Fe47         O59   2.078       .  S
Fe47         O48   2.131       .  S
Fe47         O56   1.946       .  S
O48          C55   1.285       .  A
O49          C63   1.267       .  A
O50          C55   1.266       .  A
O51          C54   1.271       .  A
O52          C64   1.276   1_565  A
O53          C66   1.279   1_545  A
C54          O59   1.268       .  A
C54         C697   1.503       .  S
C55         C684   1.480       .  S
O57          C60   1.267   1_545  A
O58          C60   1.271       .  A
C60         C704   1.478   1_565  S
O61          C66   1.263       .  A
O62          C64   1.277       .  A
C63          O65   1.278       .  A
C63         C794   1.475       .  S
C64         C747   1.506       .  S
C66         C714   1.474   1_565  S
Fe67         O83   2.084       .  S
Fe67         O73   2.024       .  S
Fe67         O80   2.022       .  S
Fe67         O72   2.088       .  S
Fe67         O78   1.944       .  S
Fe68         O71   2.100       .  S
Fe68         O75   2.052   1_565  S
Fe68         O79   2.106   1_565  S
Fe68         O84   2.034       .  S
Fe68         O78   1.930   1_565  S
Fe69         O87   2.089       .  S
Fe69         O74   2.098       .  S
Fe69         O81   2.130       .  S
Fe69         O70   2.081       .  S
Fe69         O78   1.948       .  S
O70          C77   1.268       .  A
O71          C85   1.277   1_565  A
O72          C77   1.270       .  A
O73          C76   1.266       .  A
O74          C86   1.276   1_545  A
O75          C88   1.268       .  A
C76          O81   1.285       .  A
C76         C637   1.480       .  S
C77         C654   1.504       .  S
O79          C82   1.278       .  A
O80          C82   1.263       .  A
C82         C717   1.474       .  S
O83          C88   1.270       .  A
O84          C86   1.267       .  A
C85          O87   1.277       .  A
C85         C677   1.505   1_545  S
C86         C664   1.473       .  S
C88         C644   1.476       .  S
Fe89        O105   2.083   1_655  S
Fe89         O95   2.021   1_655  S
Fe89        O102   2.023       .  S
Fe89         O94   2.087       .  S
Fe89        O100   1.945       .  S
Fe90         O93   2.103       .  S
Fe90         O97   2.050   1_655  S
Fe90        O101   2.110   1_655  S
Fe90        O106   2.034       .  S
Fe90        O100   1.932   1_545  S
Fe91        O109   2.090       .  S
Fe91         O96   2.101   1_565  S
Fe91        O103   2.130       .  S
Fe91         O92   2.084       .  S
Fe91        O100   1.947       .  S
O92          C99   1.269       .  A
O93         C107   1.277       .  A
O94          C99   1.270       .  A
O95          C98   1.266   1_455  A
O96         C108   1.278       .  A
O97         C110   1.267   1_545  A
C98         O103   1.285       .  A
C98         C584   1.479       .  S
C99         C597   1.504       .  S
O101        C104   1.279   1_445  A
O102        C104   1.263       .  A
C104        C624   1.476   1_665  S
O105        C110   1.270       .  A
O106        C108   1.268       .  A
C107        O109   1.276   1_545  A
C107        C614   1.507       .  S
C108        C604   1.475       .  S
C110        C757   1.474       .  S
Fe111       O127   2.022       .  S
Fe111       O117   2.090       .  S
Fe111       O124   2.091   1_455  S
Fe111       O116   2.026       .  S
Fe111       O122   1.941       .  S
Fe112       O115   2.028       .  S
Fe112       O119   2.108   1_565  S
Fe112       O123   2.049   1_465  S
Fe112       O128   2.100       .  S
Fe112       O122   1.928   1_565  S
Fe113       O131   2.101       .  S
Fe113       O118   2.086       .  S
Fe113       O125   2.075       .  S
Fe113       O114   2.130       .  S
Fe113       O122   1.948       .  S
O114        C121   1.285       .  A
O115        C129   1.266       .  A
O116        C121   1.267       .  A
O117        C120   1.271       .  A
O118        C130   1.276       .  A
O119        C132   1.279       .  A
C120        O125   1.267       .  A
C120        C767   1.502       .  S
C121        C544   1.480       .  S
O123        C126   1.267       .  A
O124        C126   1.272       .  A
C126        C554   1.479       .  S
O127        C132   1.263       .  A
O128        C130   1.278   1_565  A
C129        O131   1.277   1_565  A
C129        C564   1.472       .  S
C130        C574   1.504   1_545  S
C132        C627   1.475       .  S
Fe133       O149   2.088       .  S
Fe133       O139   2.023       .  S
Fe133       O146   2.020       .  S
Fe133       O138   2.091       .  S
Fe133       O144   1.943       .  S
Fe134       O137   2.100       .  S
Fe134       O141   2.052       .  S
Fe134       O145   2.105       .  S
Fe134       O150   2.036       .  S
Fe134       O144   1.932       .  S
Fe135       O153   2.089       .  S
Fe135       O140   2.100       .  S
Fe135       O147   2.129       .  S
Fe135       O136   2.082       .  S
Fe135       O144   1.948       .  S
O136        C143   1.269       .  A
O137        C151   1.277       .  A
O138        C143   1.271       .  A
O139        C142   1.266       .  A
O140        C152   1.277       .  A
O141        C154   1.268       .  A
C142        O147   1.285       .  A
C142        C774   1.479       .  S
C143        C617   1.505       .  S
O145        C148   1.278       .  A
O146        C148   1.263       .  A
C148        C534   1.473       .  S
O149        C154   1.271       .  A
O150        C152   1.268       .  A
C151        O153   1.276       .  A
C151        C657   1.506       .  S
C152        C707   1.474       .  S
C154        C524   1.478       .  S
Fe155       O171   2.022       .  S
Fe155       O161   2.092       .  S
Fe155       O168   2.092       .  S
Fe155       O160   2.028       .  S
Fe155       O166   1.940       .  S
Fe156       O159   2.029       .  S
Fe156       O163   2.102       .  S
Fe156       O167   2.046       .  S
Fe156       O172   2.098       .  S
Fe156       O166   1.926       .  S
Fe157       O175   2.096       .  S
Fe157       O162   2.085       .  S
Fe157       O169   2.075       .  S
Fe157       O158   2.123       .  S
Fe157       O166   1.945       .  S
O158        C165   1.283       .  A
O159        C173   1.266       .  A
O160        C165   1.267       .  A
O161        C164   1.272       .  A
O162        C174   1.276       .  A
O163        C176   1.277       .  A
C164        O169   1.268       .  A
C164        C497   1.502       .  S
C165        C727   1.478       .  S
O167        C170   1.267       .  A
O168        C170   1.272       .  A
C170        C607   1.478       .  S
O171        C176   1.262       .  A
O172        C174   1.277       .  A
C173        O175   1.276       .  A
C173        C504   1.469       .  S
C174        C517   1.502   1_554  S
C176        C537   1.472       .  S
Fe177       O193   2.027       .  S
Fe177       O183   2.089       .  S
Fe177       O190   2.088       .  S
Fe177       O182   2.028       .  S
Fe177       O188   1.943       .  S
Fe178       O181   2.030       .  S
Fe178       O185   2.108       .  S
Fe178       O189   2.048       .  S
Fe178       O194   2.101       .  S
Fe178       O188   1.928       .  S
Fe179       O197   2.099       .  S
Fe179       O184   2.087       .  S
Fe179       O191   2.076       .  S
Fe179       O180   2.127       .  S
Fe179       O188   1.948       .  S
O180        C187   1.284       .  A
O181        C195   1.266       .  A
O182        C187   1.267       .  A
O183        C186   1.271       .  A
O184        C196   1.276       .  A
O185        C198   1.279       .  A
C186        O191   1.268       .  A
C186        C454   1.502       .  S
C187        C444   1.479       .  S
O189        C192   1.267       .  A
O190        C192   1.271       .  A
C192        C667   1.476       .  S
O193        C198   1.264       .  A
O194        C196   1.277       .  A
C195        O197   1.276       .  A
C195        C474   1.471       .  S
C196        C484   1.505       .  S
C198        C464   1.477       .  S
Fe199       O215   2.082       .  S
Fe199       O205   2.022       .  S
Fe199       O212   2.024       .  S
Fe199       O204   2.086       .  S
Fe199       O210   1.944       .  S
Fe200       O203   2.103       .  S
Fe200       O207   2.052       .  S
Fe200       O211   2.111       .  S
Fe200       O216   2.035       .  S
Fe200       O210   1.931       .  S
Fe201       O219   2.088       .  S
Fe201       O206   2.103       .  S
Fe201       O213   2.133       .  S
Fe201       O202   2.081       .  S
Fe201       O210   1.947       .  S
O202        C209   1.268       .  A
O203        C217   1.278       .  A
O204        C209   1.270       .  A
O205        C208   1.266       .  A
O206        C218   1.278       .  A
O207        C220   1.268       .  A
C208        O213   1.286       .  A
C208        C424   1.480       .  S
C209        C674   1.503       .  S
O211        C214   1.279       .  A
O212        C214   1.264       .  A
C214        C467   1.477       .  S
O215        C220   1.270       .  A
O216        C218   1.268       .  A
C217        O219   1.276       .  A
C217        C594   1.507   1_556  S
C218        C557   1.476       .  S
C220        C437   1.476       .  S
Fe221       O237   2.024       .  S
Fe221       O227   2.089       .  S
Fe221       O234   2.089       .  S
Fe221       O226   2.025       .  S
Fe221       O232   1.945       .  S
Fe222       O225   2.032       .  S
Fe222       O229   2.106       .  S
Fe222       O233   2.048       .  S
Fe222       O238   2.101       .  S
Fe222       O232   1.928       .  S
Fe223       O241   2.104       .  S
Fe223       O228   2.087       .  S
Fe223       O235   2.077       .  S
Fe223       O224   2.129       .  S
Fe223       O232   1.947       .  S
O224        C231   1.285       .  A
O225        C239   1.266       .  A
O226        C231   1.266       .  A
O227        C230   1.271       .  A
O228        C240   1.276       .  A
O229        C242   1.279       .  A
C230        O235   1.268       .  A
C230        C487   1.502       .  S
C231        C687   1.480       .  S
O233        C236   1.267       .  A
O234        C236   1.271       .  A
C236        C817   1.477       .  S
O237        C242   1.263       .  A
O238        C240   1.277       .  A
C239        O241   1.277       .  A
C239        C527   1.475       .  S
C240        C494   1.505       .  S
C242        C414   1.475       .  S
Fe243       O259   2.081       .  S
Fe243       O249   2.023       .  S
Fe243       O256   2.022       .  S
Fe243       O248   2.087       .  S
Fe243       O254   1.943       .  S
Fe244       O247   2.104       .  S
Fe244       O251   2.053       .  S
Fe244       O255   2.110       .  S
Fe244       O260   2.036       .  S
Fe244       O254   1.931       .  S
Fe245       O263   2.087       .  S
Fe245       O250   2.099       .  S
Fe245       O257   2.131       .  S
Fe245       O246   2.080       .  S
Fe245       O254   1.948       .  S
O246        C253   1.268       .  A
O247        C261   1.278       .  A
O248        C253   1.270       .  A
O249        C252   1.266       .  A
O250        C262   1.276       .  A
O251        C264   1.268       .  A
C252        O257   1.285       .  A
C252        C634   1.480       .  S
C253        C827   1.502       .  S
O255        C258   1.279       .  A
O256        C258   1.264       .  A
C258        C417   1.476       .  S
O259        C264   1.270       .  A
O260        C262   1.267       .  A
C261        O263   1.276       .  A
C261        C404   1.506       .  S
C262        C394   1.473       .  S
C264        C477   1.476       .  S
Fe265       O281   2.025       .  S
Fe265       O271   2.088       .  S
Fe265       O278   2.089       .  S
Fe265       O270   2.026       .  S
Fe265       O276   1.942       .  S
Fe266       O269   2.031       .  S
Fe266       O273   2.109       .  S
Fe266       O277   2.048       .  S
Fe266       O282   2.103       .  S
Fe266       O276   1.926       .  S
Fe267       O285   2.101       .  S
Fe267       O272   2.089       .  S
Fe267       O279   2.077       .  S
Fe267       O268   2.129       .  S
Fe267       O276   1.947       .  S
O268        C275   1.285       .  A
O269        C283   1.267       .  A
O270        C275   1.267       .  A
O271        C274   1.271       .  A
O272        C284   1.277       .  A
O273        C286   1.279       .  A
C274        O279   1.268       .  A
C274        C577   1.501       .  S
C275        C447   1.479       .  S
O277        C280   1.267       .  A
O278        C280   1.271       .  A
C280        C397   1.477       .  S
O281        C286   1.263       .  A
O282        C284   1.278       .  A
C283        O285   1.277       .  A
C283        C647   1.473       .  S
C284        C694   1.506       .  S
C286        C384   1.476       .  S
Fe287       O303   2.081       .  S
Fe287       O293   2.022       .  S
Fe287       O300   2.023       .  S
Fe287       O292   2.088       .  S
Fe287       O298   1.943       .  S
Fe288       O291   2.104       .  S
Fe288       O295   2.053       .  S
Fe288       O299   2.112       .  S
Fe288       O304   2.034       .  S
Fe288       O298   1.932       .  S
Fe289       O307   2.088       .  S
Fe289       O294   2.103       .  S
Fe289       O301   2.133       .  S
Fe289       O290   2.083       .  S
Fe289       O298   1.947       .  S
O290        C297   1.269       .  A
O291        C305   1.278       .  A
O292        C297   1.270       .  A
O293        C296   1.266       .  A
O294        C306   1.278       .  A
O295        C308   1.268       .  A
C296        O301   1.286       .  A
C296        C427   1.480       .  S
C297        C407   1.504       .  S
O299        C302   1.280       .  A
O300        C302   1.264       .  A
C302        C387   1.476       .  S
O303        C308   1.269       .  A
O304        C306   1.267       .  A
C305        O307   1.276       .  A
C305        C374   1.507   1_556  S
C306        C364   1.475       .  S
C308        C567   1.476       .  S
Fe309       O325   2.024       .  S
Fe309       O315   2.087       .  S
Fe309       O322   2.090   1_655  S
Fe309       O314   2.026   1_655  S
Fe309       O320   1.941       .  S
Fe310       O313   2.029       .  S
Fe310       O317   2.108       .  S
Fe310       O321   2.049   1_655  S
Fe310       O326   2.100       .  S
Fe310       O320   1.927       .  S
Fe311       O329   2.100       .  S
Fe311       O316   2.087       .  S
Fe311       O323   2.075       .  S
Fe311       O312   2.130       .  S
Fe311       O320   1.948       .  S
O312        C319   1.285       .  A
O313        C327   1.266       .  A
O314        C319   1.267   1_455  A
O315        C318   1.271       .  A
O316        C328   1.277       .  A
O317        C330   1.279       .  A
C318        O323   1.267       .  A
C318        C514   1.500       .  S
C319        C547   1.480       .  S
O321        C324   1.267       .  A
O322        C324   1.271       .  A
C324        C367   1.479       .  S
O325        C330   1.263       .  A
O326        C328   1.278       .  A
C327        O329   1.276       .  A
C327        C434   1.472       .  S
C328        C457   1.504       .  S
C330        C354   1.475       .  S
Fe331       O347   2.080   1_455  S
Fe331       O337   2.022       .  S
Fe331       O344   2.022       .  S
Fe331       O336   2.088       .  S
Fe331       O342   1.945       .  S
Fe332       O335   2.103       .  S
Fe332       O339   2.052   1_455  S
Fe332       O343   2.110       .  S
Fe332       O348   2.037       .  S
Fe332       O342   1.932       .  S
Fe333       O351   2.088       .  S
Fe333       O338   2.101       .  S
Fe333       O345   2.130       .  S
Fe333       O334   2.083       .  S
Fe333       O342   1.946       .  S
O334        C341   1.269       .  A
O335        C349   1.277       .  A
O336        C341   1.270       .  A
O337        C340   1.266       .  A
O338        C350   1.277       .  A
O339        C352   1.267       .  A
C340        O345   1.285       .  A
C340        C587   1.479       .  S
C341        C377   1.504       .  S
O343        C346   1.279       .  A
O344        C346   1.264       .  A
C346        C357   1.476       .  S
O347        C352   1.269       .  A
O348        C350   1.268       .  A
C349        O351   1.276       .  A
C349        C787   1.506       .  S
C350        C737   1.476       .  S
C352        C507   1.473       .  S
C353        C354   1.401   1_455  A
C353        C358   1.394   1_556  A
C353        H359   1.083       .  S
C354        C355   1.409       .  A
C355        C356   1.395   1_556  A
C355        H360   1.084       .  S
C356        C357   1.401   1_655  A
C356        H361   1.083       .  S
C357        C358   1.409       .  A
C358        H362   1.083       .  S
C363        C364   1.406       .  A
C363        C368   1.393       .  A
C363        H369   1.084       .  S
C364        C365   1.402       .  A
C365        C366   1.402       .  A
C365        H370   1.083       .  S
C366        C367   1.410       .  A
C366        H371   1.083       .  S
C367        C368   1.402       .  A
C368        H372   1.084       .  S
C373        C374   1.410       .  A
C373        C378   1.408       .  A
C373        H379   1.083       .  S
C374        C375   1.410       .  A
C375        C376   1.409       .  A
C375        H380   1.083       .  S
C376        C377   1.410       .  A
C376        H381   1.083       .  S
C377        C378   1.410       .  A
C378        H382   1.083       .  S
C383        C384   1.401       .  A
C383        C388   1.394       .  A
C383        H389   1.084       .  S
C384        C385   1.409       .  A
C385        C386   1.396       .  A
C385        H390   1.084       .  S
C386        C387   1.402       .  A
C386        H391   1.084       .  S
C387        C388   1.409       .  A
C388        H392   1.083       .  S
C393        C394   1.405       .  A
C393        C398   1.392       .  A
C393        H399   1.083       .  S
C394        C395   1.402       .  A
C395        C396   1.401       .  A
C395        H400   1.084       .  S
C396        C397   1.410       .  A
C396        H401   1.083       .  S
C397        C398   1.402       .  A
C398        H402   1.084       .  S
C403        C404   1.410       .  A
C403        C408   1.409       .  A
C403        H409   1.083       .  S
C404        C405   1.410       .  A
C405        C406   1.407       .  A
C405        H410   1.083       .  S
C406        C407   1.409       .  A
C406        H411   1.083       .  S
C407        C408   1.410       .  A
C408        H412   1.083       .  S
C413        C414   1.400       .  A
C413        C418   1.393       .  A
C413        H419   1.083       .  S
C414        C415   1.409       .  A
C415        C416   1.396       .  A
C415        H420   1.084       .  S
C416        C417   1.402       .  A
C416        H421   1.083       .  S
C417        C418   1.409       .  A
C418        H422   1.083       .  S
C423        C424   1.399       .  A
C423        C428   1.400       .  A
C423        H429   1.083       .  S
C424        C425   1.412       .  A
C425        C426   1.399       .  A
C425        H430   1.084       .  S
C426        C427   1.399       .  A
C426        H431   1.083       .  S
C427        C428   1.412       .  A
C428        H432   1.084       .  S
C433        C434   1.400       .  A
C433        C438   1.400       .  A
C433        H439   1.084       .  S
C434        C435   1.406       .  A
C435        C436   1.392       .  A
C435        H440   1.083       .  S
C436        C437   1.401       .  A
C436        H441   1.084       .  S
C437        C438   1.411       .  A
C438        H442   1.083       .  S
C443        C444   1.411       .  A
C443        C448   1.399   1_655  A
C443        H449   1.084       .  S
C444        C445   1.400   1_655  A
C445        C446   1.399       .  A
C445        H450   1.083       .  S
C446        C447   1.411       .  A
C446        H451   1.084       .  S
C447        C448   1.400       .  A
C448        H452   1.083       .  S
C453        C454   1.408       .  A
C453        C458   1.406       .  A
C453        H459   1.083       .  S
C454        C455   1.411       .  A
C455        C456   1.408       .  A
C455        H460   1.083       .  S
C456        C457   1.409       .  A
C456        H461   1.083       .  S
C457        C458   1.410       .  A
C458        H462   1.083       .  S
C463        C464   1.410       .  A
C463        C468   1.396       .  A
C463        H469   1.084       .  S
C464        C465   1.401       .  A
C465        C466   1.394       .  A
C465        H470   1.083       .  S
C466        C467   1.409       .  A
C466        H471   1.083       .  S
C467        C468   1.402       .  A
C468        H472   1.084       .  S
C473        C474   1.400       .  A
C473        C478   1.400       .  A
C473        H479   1.083       .  S
C474        C475   1.406       .  A
C475        C476   1.392       .  A
C475        H480   1.084       .  S
C476        C477   1.401       .  A
C476        H481   1.084       .  S
C477        C478   1.411       .  A
C478        H482   1.083       .  S
C483        C484   1.411       .  A
C483        C488   1.407       .  A
C483        H489   1.083       .  S
C484        C485   1.409       .  A
C485        C486   1.408       .  A
C485        H490   1.083       .  S
C486        C487   1.410       .  A
C486        H491   1.083       .  S
C487        C488   1.409       .  A
C488        H492   1.083       .  S
C493        C494   1.409       .  A
C493        C498   1.407       .  A
C493        H499   1.083       .  S
C494        C495   1.411       .  A
C495        C496   1.408       .  A
C495        H500   1.083       .  S
C496        C497   1.409       .  A
C496        H501   1.083       .  S
C497        C498   1.410       .  A
C498        H502   1.083       .  S
C503        C504   1.406       .  A
C503        C508   1.392       .  A
C503        H509   1.084       .  S
C504        C505   1.400       .  A
C505        C506   1.399       .  A
C505        H510   1.084       .  S
C506        C507   1.410       .  A
C506        H511   1.083       .  S
C507        C508   1.401       .  A
C508        H512   1.084       .  S
C513        C514   1.408       .  A
C513        C518   1.405       .  A
C513        H519   1.083       .  S
C514        C515   1.410       .  A
C515        C516   1.407       .  A
C515        H520   1.083       .  S
C516        C517   1.409       .  A
C516        H521   1.083       .  S
C517        C518   1.410       .  A
C518        H522   1.083   1_556  S
C523        C524   1.402       .  A
C523        C528   1.393       .  A
C523        H529   1.084       .  S
C524        C525   1.410       .  A
C525        C526   1.402       .  A
C525        H530   1.083       .  S
C526        C527   1.402       .  A
C526        H531   1.084       .  S
C527        C528   1.407       .  A
C528        H532   1.083       .  S
C533        C534   1.401       .  A
C533        C538   1.394       .  A
C533        H539   1.083       .  S
C534        C535   1.408       .  A
C535        C536   1.392       .  A
C535        H540   1.083       .  S
C536        C537   1.400       .  A
C536        H541   1.083       .  S
C537        C538   1.409       .  A
C538        H542   1.083       .  S
C543        C544   1.400       .  A
C543        C548   1.399       .  A
C543        H549   1.083       .  S
C544        C545   1.412   1_455  A
C545        C546   1.399       .  A
C545        H550   1.084       .  S
C546        C547   1.400       .  A
C546        H551   1.084       .  S
C547        C548   1.411   1_655  A
C548        H552   1.084       .  S
C553        C554   1.402   1_565  A
C553        C558   1.393       .  A
C553        H559   1.084       .  S
C554        C555   1.410       .  A
C555        C556   1.402   1_545  A
C555        H560   1.083       .  S
C556        C557   1.402       .  A
C556        H561   1.083   1_565  S
C557        C558   1.406       .  A
C558        H562   1.084       .  S
C563        C564   1.400       .  A
C563        C568   1.400       .  A
C563        H569   1.084       .  S
C564        C565   1.407       .  A
C565        C566   1.392       .  A
C565        H570   1.084       .  S
C566        C567   1.401       .  A
C566        H571   1.084       .  S
C567        C568   1.411       .  A
C568        H572   1.083       .  S
C573        C574   1.409   1_545  A
C573        C578   1.408   1_545  A
C573        H579   1.083       .  S
C574        C575   1.410       .  A
C575        C576   1.406       .  A
C575        H580   1.083       .  S
C576        C577   1.408       .  A
C576        H581   1.083       .  S
C577        C578   1.410       .  A
C578        H582   1.083   1_565  S
C583        C584   1.412   1_455  A
C583        C588   1.399       .  A
C583        H589   1.084       .  S
C584        C585   1.399       .  A
C585        C586   1.399       .  A
C585        H590   1.083       .  S
C586        C587   1.412   1_655  A
C586        H591   1.084       .  S
C587        C588   1.399       .  A
C588        H592   1.084       .  S
C593        C594   1.410       .  A
C593        C598   1.407       .  A
C593        H599   1.083       .  S
C594        C595   1.410       .  A
C595        C596   1.409       .  A
C595        H600   1.083       .  S
C596        C597   1.410       .  A
C596        H601   1.083       .  S
C597        C598   1.409       .  A
C598        H602   1.083       .  S
C603        C604   1.406       .  A
C603        C608   1.392       .  A
C603        H609   1.083       .  S
C604        C605   1.402       .  A
C605        C606   1.401       .  A
C605        H610   1.084       .  S
C606        C607   1.410       .  A
C606        H611   1.083       .  S
C607        C608   1.402       .  A
C608        H612   1.084       .  S
C613        C614   1.411       .  A
C613        C618   1.408       .  A
C613        H619   1.083       .  S
C614        C615   1.410       .  A
C615        C616   1.409       .  A
C615        H620   1.083   1_545  S
C616        C617   1.410       .  A
C616        H621   1.083       .  S
C617        C618   1.410       .  A
C618        H622   1.083       .  S
C623        C624   1.401       .  A
C623        C628   1.394   1_554  A
C623        H629   1.083       .  S
C624        C625   1.409   1_445  A
C625        C626   1.394   1_654  A
C625        H630   1.083       .  S
C626        C627   1.401   1_565  A
C626        H631   1.084       .  S
C627        C628   1.409       .  A
C628        H632   1.084       .  S
C633        C634   1.399       .  A
C633        C638   1.399       .  A
C633        H639   1.083       .  S
C634        C635   1.412       .  A
C635        C636   1.399       .  A
C635        H640   1.084       .  S
C636        C637   1.399       .  A
C636        H641   1.084       .  S
C637        C638   1.412       .  A
C638        H642   1.084       .  S
C643        C644   1.410       .  A
C643        C648   1.401       .  A
C643        H649   1.083       .  S
C644        C645   1.401   1_545  A
C645        C646   1.392       .  A
C645        H650   1.084       .  S
C646        C647   1.406       .  A
C646        H651   1.084       .  S
C647        C648   1.401   1_565  A
C648        H652   1.083       .  S
C653        C654   1.410       .  A
C653        C658   1.408       .  A
C653        H659   1.083       .  S
C654        C655   1.409       .  A
C655        C656   1.407       .  A
C655        H660   1.083       .  S
C656        C657   1.411       .  A
C656        H661   1.083       .  S
C657        C658   1.409       .  A
C658        H662   1.083       .  S
C663        C664   1.405       .  A
C663        C668   1.392       .  A
C663        H669   1.083       .  S
C664        C665   1.401       .  A
C665        C666   1.401       .  A
C665        H670   1.084       .  S
C666        C667   1.410       .  A
C666        H671   1.083       .  S
C667        C668   1.402       .  A
C668        H672   1.084       .  S
C673        C674   1.410       .  A
C673        C678   1.409   1_565  A
C673        H679   1.083       .  S
C674        C675   1.409       .  A
C675        C676   1.406       .  A
C675        H680   1.083       .  S
C676        C677   1.410       .  A
C676        H681   1.083       .  S
C677        C678   1.410   1_565  A
C678        H682   1.083       .  S
C683        C684   1.399       .  A
C683        C688   1.399       .  A
C683        H689   1.083       .  S
C684        C685   1.412       .  A
C685        C686   1.399       .  A
C685        H690   1.084       .  S
C686        C687   1.400       .  A
C686        H691   1.083       .  S
C687        C688   1.412       .  A
C688        H692   1.084       .  S
C693        C694   1.411       .  A
C693        C698   1.408       .  A
C693        H699   1.083       .  S
C694        C695   1.409       .  A
C695        C696   1.408       .  A
C695        H700   1.083       .  S
C696        C697   1.410       .  A
C696        H701   1.083       .  S
C697        C698   1.409       .  A
C698        H702   1.083       .  S
C703        C704   1.402       .  A
C703        C708   1.392       .  A
C703        H709   1.084       .  S
C704        C705   1.410   1_545  A
C705        C706   1.402   1_565  A
C705        H710   1.083       .  S
C706        C707   1.402       .  A
C706        H711   1.084       .  S
C707        C708   1.406       .  A
C708        H712   1.083       .  S
C713        C714   1.409   1_565  A
C713        C718   1.394       .  A
C713        H719   1.083       .  S
C714        C715   1.400       .  A
C715        C716   1.393       .  A
C715        H720   1.083       .  S
C716        C717   1.409       .  A
C716        H721   1.083       .  S
C717        C718   1.401   1_545  A
C718        H722   1.083       .  S
C723        C724   1.411       .  A
C723        C728   1.398       .  A
C723        H729   1.084       .  S
C724        C725   1.400       .  A
C725        C726   1.398       .  A
C725        H730   1.083       .  S
C726        C727   1.411       .  A
C726        H731   1.084       .  S
C727        C728   1.400       .  A
C728        H732   1.083       .  S
C733        C734   1.410       .  A
C733        C738   1.402       .  A
C733        H739   1.083       .  S
C734        C735   1.403       .  A
C735        C736   1.393       .  A
C735        H740   1.084       .  S
C736        C737   1.406       .  A
C736        H741   1.083       .  S
C737        C738   1.403       .  A
C738        H742   1.084       .  S
C743        C744   1.410       .  A
C743        C748   1.407       .  A
C743        H749   1.083       .  S
C744        C745   1.409       .  A
C745        C746   1.408       .  A
C745        H750   1.083       .  S
C746        C747   1.411       .  A
C746        H751   1.083       .  S
C747        C748   1.409       .  A
C748        H752   1.083   1_545  S
C753        C754   1.406       .  A
C753        C758   1.392       .  A
C753        H759   1.084       .  S
C754        C755   1.400       .  A
C755        C756   1.399   1_545  A
C755        H760   1.084       .  S
C756        C757   1.410       .  A
C756        H761   1.083       .  S
C757        C758   1.401   1_565  A
C758        H762   1.084       .  S
C763        C764   1.411       .  A
C763        C768   1.407       .  A
C763        H769   1.083   1_556  S
C764        C765   1.409       .  A
C765        C766   1.408       .  A
C765        H770   1.083       .  S
C766        C767   1.411       .  A
C766        H771   1.083       .  S
C767        C768   1.408       .  A
C768        H772   1.083       .  S
C773        C774   1.412       .  A
C773        C778   1.399   1_655  A
C773        H779   1.084       .  S
C774        C775   1.399   1_655  A
C775        C776   1.399       .  A
C775        H780   1.083       .  S
C776        C777   1.412       .  A
C776        H781   1.084       .  S
C777        C778   1.400       .  A
C778        H782   1.083       .  S
C783        C784   1.410       .  A
C783        C788   1.408       .  A
C783        H789   1.083       .  S
C784        C785   1.409       .  A
C785        C786   1.408       .  A
C785        H790   1.083       .  S
C786        C787   1.411       .  A
C786        H791   1.083       .  S
C787        C788   1.409       .  A
C788        H792   1.083       .  S
C793        C794   1.401       .  A
C793        C798   1.401       .  A
C793        H799   1.084       .  S
C794        C795   1.407       .  A
C795        C796   1.393       .  A
C795        H800   1.083       .  S
C796        C797   1.402       .  A
C796        H801   1.084       .  S
C797        C798   1.410       .  A
C798        H802   1.083       .  S
C803        C804   1.409       .  A
C803        C808   1.392       .  A
C803        H809   1.083       .  S
C804        C805   1.401       .  A
C805        C806   1.394       .  A
C805        H810   1.084       .  S
C806        C807   1.409       .  A
C806        H811   1.084       .  S
C807        C808   1.400       .  A
C808        H812   1.084       .  S
C813        C814   1.402       .  A
C813        C818   1.401       .  A
C813        H819   1.083       .  S
C814        C815   1.406       .  A
C815        C816   1.392       .  A
C815        H820   1.084       .  S
C816        C817   1.402       .  A
C816        H821   1.084       .  S
C817        C818   1.410       .  A
C818        H822   1.083       .  S
C823        C824   1.410       .  A
C823        C828   1.407       .  A
C823        H829   1.083       .  S
C824        C825   1.409       .  A
C825        C826   1.408       .  A
C825        H830   1.083       .  S
C826        C827   1.410       .  A
C826        H831   1.083       .  S
C827        C828   1.409       .  A
C828        H832   1.083       .  S
