geometry optimzed in LAMMPS
_audit_creation_date              2020-12-01 
_audit_creation_method            'lammps2cif' 
_symmetry_space_group_name_H-M    'P1' 
_symmetry_Int_Tables_number       1 
_symmetry_cell_setting            triclinic 
loop_ 
_symmetry_equiv_pos_as_xyz 
  x,y,z 
_cell_length_a                    32.68903241 
_cell_length_b                    32.87502928827186 
_cell_length_c                    64.31277799668484 
_cell_angle_alpha                 90.05519325321666 
_cell_angle_beta                  90.00277738448158 
_cell_angle_gamma                 90.02768677848394 
loop_ 
_atom_site_label 
_atom_site_type_symbol 
_atom_site_fract_x 
_atom_site_fract_y 
_atom_site_fract_z 
_atom_site_charge 
Zr1        Zr  0.15747607  0.00442445  0.54688117     2.17500
O2          O  0.16020496  0.07463917  0.53452254    -0.51200
O3          O  0.21846049  0.00411489  0.52404173    -0.74400
O4          O  0.18614305  0.04972685  0.57638018    -0.81200
O5          O  0.07434022  0.96398349  0.50760837    -0.82900
O6          O  0.18039376  0.01925673  0.60797925    -0.78500
O7          O  0.09877012  0.02160443  0.52318456    -0.90200
O8          O  0.25220438  0.94465700  0.52992636    -0.76100
O9          O  0.19750437  0.96430390  0.57015968    -0.85600
O10         O  0.16917061  0.94067867  0.52880270    -0.85300
O11         O  0.11731305  0.99750369  0.57790617    -0.72100
O12         O  0.09963084  0.96477954  0.54293411    -0.84200
Zr13       Zr  0.10374163  0.86087408  0.57617507     2.26400
Zr14       Zr  0.15544078  0.95326353  0.60026706     2.06300
Zr15       Zr  0.10569837  0.90558002  0.52326680     2.10000
Zr16       Zr  0.20990600  0.90175972  0.55231521     1.78800
O17         O  0.07447531  0.89982596  0.48881935    -0.93000
O18         O  0.27236769  0.91254552  0.57235822    -0.40800
O19         O  0.14657730  0.86532965  0.54589827    -0.77400
O20         O  0.16975870  0.89030213  0.58317716    -0.96100
O21         O  0.09076152  0.92355344  0.59343979    -0.89400
O22         O  0.06375917  0.90073762  0.55307979    -0.92300
C23         C  0.24815974  0.97910301  0.52073538     1.01500
C24         C  0.07365643  0.00240813  0.51082937     1.14400
C25         C  0.19055411  0.04927974  0.59668734     1.05200
O26         O  0.22116254  0.94187984  0.61705412    -0.94400
O27         O  0.14154086  0.90647923  0.62803276    -0.90200
O28         O  0.10690512  0.85379023  0.61334076    -0.83300
C29         C  0.12205095  0.87286371  0.62895968     1.11800
O30         O  0.03007511  0.03450626  0.56648672    -0.96400
Zr31       Zr  0.05393630  0.96469619  0.56989310     1.88900
O32         O  0.03368448  0.85543974  0.58782419    -0.73100
O33         O  0.11923503  0.98388608  0.62958159    -0.52300
O34         O  0.02956277  0.98821428  0.60396388    -0.97000
O35         O  0.99970336  0.97717944  0.54482521    -0.54200
O36         O  0.00383750  0.91639151  0.58088028    -0.73600
C37         C  0.00309809  0.87975719  0.58749143     0.98800
O38         O  0.13034046  0.79371897  0.58477702    -0.62400
O39         O  0.15619097  0.87658675  0.49920656    -0.57200
O40         O  0.06744994  0.81187182  0.55468176    -0.93900
O41         O  0.06010230  0.84391468  0.52364272    -0.92300
O42         O  0.22881882  0.85495322  0.52453897    -0.92700
O43         O  0.24455233  0.83989781  0.56336733    -0.91400
C44         C  0.05150949  0.81486490  0.53652904     1.17600
H45         H  0.18088131  0.94370637  0.51517165     0.33600
H46         H  0.18497965  0.87265392  0.59263101     0.44400
H47         H  0.03732307  0.88935881  0.54972110     0.37900
H48         H  0.11202632  0.02342255  0.58434557     0.34400
H49         H  0.29497870  0.90709277  0.56242322     0.26200
H50         H  0.14062488  0.99194755  0.63965733     0.32100
H51         H  0.03299655  0.96485218  0.61353884     0.38100
H52         H  0.25009680  0.86929655  0.51636039     0.32500
H53         H  0.14347369  0.85136650  0.49377153     0.31400
H54         H  0.04587273  0.89146397  0.49135641     0.33100
H55         H  0.97377913  0.97322764  0.55265176     0.32000
H56         H  0.22215834  0.82084512  0.56692778     0.36000
H57         H  0.13332907  0.77949146  0.57128015     0.28800
H58         H  0.18853145  0.08389824  0.53729512     0.33000
H59         H  0.05271254  0.04869937  0.55928668     0.35900
H60         H  0.15675182  0.89529054  0.48714541     0.28500
H61         H  0.15878988  0.79872789  0.58937208     0.41300
H62         H  0.21713584  0.95124893  0.63154667     0.31400
H63         H  0.27377118  0.94214541  0.57483521     0.39000
H64         H  0.00104117  0.95370268  0.53529826     0.30900
H65         H  0.10785700  0.00985474  0.62431226     0.30900
H66         H  0.14317537  0.09011107  0.54450750     0.31200
Zr67       Zr  0.27594087  0.14105893  0.69415564     2.17500
O68         O  0.20250714  0.14883228  0.69941457    -0.51200
O69         O  0.25935173  0.08854025  0.72023742    -0.74400
O70         O  0.23632418  0.11209142  0.66322502    -0.81200
O71         O  0.31417726  0.22946154  0.73067155    -0.82900
O72         O  0.27570239  0.11158006  0.63423304    -0.78500
O73         O  0.25795600  0.20509666  0.71360547    -0.90200
O74         O  0.31340197  0.04517264  0.72216051    -0.76100
O75         O  0.31623809  0.08847107  0.67884234    -0.85600
O76         O  0.33079990  0.12770740  0.71867806    -0.85300
O77         O  0.30043562  0.16937703  0.66179904    -0.72100
O78         O  0.31972447  0.19815621  0.69853013    -0.84200
Zr79       Zr  0.43439874  0.16369786  0.67572844     2.26400
Zr80       Zr  0.34384050  0.11701640  0.64755092     2.06300
Zr81       Zr  0.37320826  0.18702471  0.72318182     2.10000
Zr82       Zr  0.37017475  0.07478892  0.70293396     1.78800
O83         O  0.37656017  0.23106672  0.75365414    -0.93000
O84         O  0.35870525  0.00778427  0.68767354    -0.40800
O85         O  0.41296829  0.13408580  0.70804657    -0.77400
O86         O  0.39844599  0.10050650  0.67082048    -0.96100
O87         O  0.38014324  0.17873335  0.65241676    -0.89400
O88         O  0.39449383  0.21577572  0.69145878    -0.92300
C89         C  0.27743584  0.05676994  0.72751588     1.01500
C90         C  0.27627934  0.23161609  0.72548597     1.14400
C91         C  0.24174167  0.10563376  0.64334377     1.05200
O92         O  0.35664433  0.04421120  0.64523185    -0.94400
O93         O  0.39346673  0.13959190  0.62220335    -0.90200
O94         O  0.45072314  0.15951093  0.63936006    -0.83300
C95         C  0.43035940  0.15239387  0.62272293     1.11800
O96         O  0.27329369  0.26094780  0.66260409    -0.96400
Zr97       Zr  0.34032605  0.22998092  0.66772307     1.88900
O98         O  0.45930323  0.22871041  0.66417802    -0.73100
O99         O  0.33967026  0.10055071  0.61049177    -0.52300
O100        O  0.33346480  0.24880951  0.63129141    -0.97000
O101        O  0.33302059  0.29304346  0.68745080    -0.54200
O102        O  0.40201452  0.26707898  0.65973427    -0.73600
C103        C  0.44098715  0.26197101  0.65987377     0.98800
O104        O  0.49695074  0.12357761  0.67422506    -0.62400
O105        O  0.38272110  0.14411575  0.75370182    -0.57200
O106        O  0.48218085  0.19563846  0.69916624    -0.93900
O107        O  0.44211668  0.22102537  0.72495290    -0.92300
O108        O  0.39832167  0.06024559  0.73722994    -0.92700
O109        O  0.43071963  0.03161635  0.70229594    -0.91400
C110        C  0.47641118  0.21889030  0.71486235     1.17600
H111        H  0.32097400  0.12066476  0.73250015     0.33600
H112        H  0.41669954  0.08050230  0.66459624     0.44400
H113        H  0.40868338  0.24079556  0.69445417     0.37900
H114        H  0.27815188  0.17673940  0.65272570     0.34400
H115        H  0.36267726  0.98840778  0.69925781     0.26200
H116        H  0.32305149  0.07518885  0.60928601     0.32100
H117        H  0.34206661  0.27763535  0.63071683     0.38100
H118        H  0.37489095  0.06209934  0.74694548     0.32500
H119        H  0.40666162  0.15568016  0.76094138     0.31400
H120        H  0.38597782  0.25771328  0.74835237     0.33100
H121        H  0.30738233  0.29021880  0.69551223     0.32000
H122        H  0.45403223  0.05084800  0.70183065     0.36000
H123        H  0.49623122  0.10670378  0.68696269     0.28800
H124        H  0.19133127  0.12090061  0.69869228     0.33000
H125        H  0.25424049  0.24354671  0.67059880     0.35900
H126        H  0.35914431  0.15042112  0.76291996     0.28500
H127        H  0.49257273  0.10401445  0.66272294     0.41300
H128        H  0.32920777  0.03197419  0.64340209     0.31400
H129        H  0.32895017  0.00663730  0.68479137     0.39000
H130        H  0.32711310  0.31428362  0.67697674     0.30900
H131        H  0.32293563  0.12191207  0.60401787     0.30900
H132        H  0.19235386  0.16234702  0.68664147     0.31200
Zr133      Zr  0.39017393  0.48753830  0.55533138     2.17500
O134        O  0.39773330  0.56112058  0.55275832    -0.51200
O135        O  0.32715024  0.48841075  0.53427025    -0.74400
O136        O  0.42621684  0.50720445  0.52225724    -0.81200
O137        O  0.36459353  0.49806047  0.61605947    -0.82900
O138        O  0.45000940  0.44924813  0.50682234    -0.78500
O139        O  0.35711635  0.52889948  0.58454592    -0.90200
O140        O  0.29237464  0.43098189  0.54296312    -0.76100
O141        O  0.37489455  0.42492865  0.53758307    -0.85600
O142        O  0.35259096  0.44596049  0.57914873    -0.85300
O143        O  0.45476558  0.45428846  0.54739215    -0.72100
O144        O  0.43435135  0.47669371  0.58496406    -0.84200
Zr145      Zr  0.44269559  0.34195296  0.58130168     2.26400
Zr146      Zr  0.43819544  0.39158671  0.52921915     2.06300
Zr147      Zr  0.39676414  0.43391549  0.60838850     2.10000
Zr148      Zr  0.33672116  0.38461157  0.56144668     1.78800
O149        O  0.42877297  0.47187758  0.63658544    -0.93000
O150        O  0.30545531  0.34892165  0.53218991    -0.40800
O151        O  0.37875404  0.37167560  0.59127749    -0.77400
O152        O  0.39861792  0.35012473  0.55191610    -0.96100
O153        O  0.48173593  0.38230193  0.55813452    -0.89400
O154        O  0.46037292  0.40331694  0.59915833    -0.92300
C155        C  0.29598384  0.46449565  0.53300609     1.01500
C156        C  0.35173473  0.52732691  0.60474551     1.14400
C157        C  0.44695406  0.48799902  0.50800548     1.05200
O158        O  0.38593821  0.35912020  0.50793918    -0.94400
O159        O  0.48872048  0.33476510  0.53064214    -0.90200
O160        O  0.46803823  0.29277352  0.55638691    -0.83300
C161        C  0.49066216  0.30069600  0.54065473     1.11800
O162        O  0.52257607  0.51334848  0.57488447    -0.96400
Zr163      Zr  0.49760663  0.44356974  0.57594444     1.88900
O164        O  0.51414755  0.32910041  0.58597986    -0.73100
O165        O  0.47132086  0.37334924  0.49645246    -0.52300
O166        O  0.55082361  0.45715149  0.55032798    -0.97000
O167        O  0.53093304  0.46237795  0.60849576    -0.54200
O168        O  0.54644278  0.38879902  0.57911571    -0.73600
C169        C  0.54620063  0.35062908  0.58332608     0.98800
O170        O  0.41674565  0.27455279  0.58995000    -0.62400
O171        O  0.33561294  0.41466109  0.62766582    -0.57200
O172        O  0.44735077  0.33275292  0.61821876    -0.93900
O173        O  0.42040014  0.38741760  0.63508376    -0.92300
O174        O  0.27940654  0.38983586  0.58547222    -0.92700
O175        O  0.31089023  0.31713628  0.56989663    -0.91400
C176        C  0.43838493  0.35278391  0.63472101     1.17600
H177        H  0.32711853  0.45871911  0.58341126     0.33600
H178        H  0.39261501  0.32406816  0.54565888     0.44400
H179        H  0.47858401  0.39902739  0.61091144     0.37900
H180        H  0.47449096  0.47104936  0.54052639     0.34400
H181        H  0.27572861  0.34957750  0.53505128     0.26200
H182        H  0.45434804  0.38517721  0.48519912     0.32100
H183        H  0.55048386  0.43310814  0.54104417     0.38100
H184        H  0.25480610  0.38940768  0.57647116     0.32500
H185        H  0.33668593  0.38460477  0.62853941     0.31400
H186        H  0.40905752  0.47040644  0.64824232     0.33100
H187        H  0.54551457  0.43756150  0.61310900     0.32000
H188        H  0.33512467  0.30204890  0.57497548     0.36000
H189        H  0.43910257  0.26135986  0.59783442     0.28800
H190        H  0.38419724  0.56865125  0.53956255     0.33000
H191        H  0.49791847  0.53030812  0.57676155     0.35900
H192        H  0.34088343  0.42403903  0.64205131     0.28500
H193        H  0.39499977  0.27939377  0.60037890     0.41300
H194        H  0.39758429  0.33224657  0.50426569     0.31400
H195        H  0.30896684  0.36720530  0.52007421     0.39000
H196        H  0.50846154  0.46589459  0.61862906     0.30900
H197        H  0.49727456  0.38877612  0.49613166     0.30900
H198        H  0.42730027  0.56578237  0.55026470     0.31200
Zr199      Zr  0.24886137  0.63188290  0.69613824     2.17500
O200        O  0.32284451  0.63599068  0.70034421    -0.51200
O201        O  0.24866372  0.57228226  0.71920254    -0.74400
O202        O  0.26661931  0.67327448  0.72790631    -0.81200
O203        O  0.26104437  0.59925606  0.63615533    -0.82900
O204        O  0.20741243  0.69794697  0.74196243    -0.78500
O205        O  0.29169412  0.59622435  0.66796322    -0.90200
O206        O  0.19147928  0.53551798  0.71188477    -0.76100
O207        O  0.18522870  0.61906033  0.71373360    -0.85600
O208        O  0.20804468  0.59102115  0.67347188    -0.85300
O209        O  0.21485419  0.69703565  0.70125151    -0.72100
O210        O  0.23937472  0.67076265  0.66472200    -0.84200
Zr211      Zr  0.10312088  0.68027599  0.66668603     2.26400
Zr212      Zr  0.15090747  0.68302715  0.71911926     2.06300
Zr213      Zr  0.19621297  0.63038126  0.64257511     2.10000
Zr214      Zr  0.14581842  0.57728569  0.69103445     1.78800
O215        O  0.23508550  0.65851211  0.61364840    -0.93000
O216        O  0.10656435  0.55329130  0.72088844    -0.40800
O217        O  0.13318838  0.61523378  0.65976147    -0.77400
O218        O  0.11035528  0.64022904  0.69753761    -0.96100
O219        O  0.14337644  0.72227976  0.68863591    -0.89400
O220        O  0.16568835  0.69471067  0.64904115    -0.92300
C221        C  0.22533497  0.54105922  0.72155849     1.01500
C222        C  0.29052042  0.58847542  0.64791605     1.14400
C223        C  0.24643120  0.69519326  0.74135042     1.05200
O224        O  0.11739205  0.63426065  0.74192599    -0.94400
O225        O  0.09325584  0.73239336  0.71547022    -0.90200
O226        O  0.05228547  0.70935822  0.68972398    -0.83300
C227        C  0.05951111  0.73342079  0.70494952     1.11800
O228        O  0.27578712  0.76014102  0.67402302    -0.96400
Zr229      Zr  0.20601263  0.73469771  0.67083249     1.88900
O230        O  0.09145170  0.75040606  0.65826848    -0.73100
O231        O  0.13067000  0.72210888  0.74976606    -0.52300
O232        O  0.21907855  0.79573082  0.69133667    -0.97000
O233        O  0.22699361  0.75368905  0.63577096    -0.54200
O234        O  0.15234715  0.78247506  0.66306972    -0.73600
C235        C  0.11413939  0.78204132  0.65855330     0.98800
O236        O  0.03694982  0.65113086  0.65764973    -0.62400
O237        O  0.17792443  0.56579022  0.62647055    -0.57200
O238        O  0.09594423  0.68160221  0.62954442    -0.93900
O239        O  0.15071130  0.65046479  0.61454052    -0.92300
O240        O  0.15517220  0.51782102  0.66890409    -0.92700
O241        O  0.08122926  0.54597360  0.68100619    -0.91400
C242        C  0.11688397  0.67015616  0.61371394     1.17600
H243        H  0.22133312  0.56544132  0.67025689     0.33600
H244        H  0.08405174  0.63515560  0.70370034     0.44400
H245        H  0.16238092  0.71117175  0.63668409     0.37900
H246        H  0.23102639  0.71811034  0.70764149     0.34400
H247        H  0.10347011  0.52364226  0.71869413     0.26200
H248        H  0.14237572  0.70802067  0.76201984     0.32100
H249        H  0.21639492  0.81859360  0.68141362     0.38100
H250        H  0.16052806  0.49513240  0.67860766     0.32500
H251        H  0.14775646  0.56421090  0.62757993     0.31400
H252        H  0.23137603  0.63882801  0.60213051     0.33100
H253        H  0.25462317  0.74183505  0.63404397     0.32000
H254        H  0.06388967  0.56896042  0.67648365     0.36000
H255        H  0.04317544  0.63015261  0.64705708     0.28800
H256        H  0.32833057  0.62472689  0.71431643     0.33000
H257        H  0.29210840  0.73610630  0.67817335     0.35900
H258        H  0.18318401  0.56988350  0.61146090     0.28500
H259        H  0.02875691  0.63541108  0.67008459     0.41300
H260        H  0.13562066  0.63221482  0.75419352     0.31400
H261        H  0.12543230  0.55544698  0.73289198     0.39000
H262        H  0.23160340  0.78343725  0.63646218     0.30900
H263        H  0.14574500  0.74812732  0.74880553     0.30900
H264        H  0.32896538  0.66544129  0.70156712     0.31200
Zr265      Zr  0.64865484  0.00968473  0.54562318     2.17500
O266        O  0.64796237  0.93620588  0.54048577    -0.51200
O267        O  0.70189152  0.00613406  0.51785242    -0.74400
O268        O  0.59760665  0.99001422  0.51843360    -0.81200
O269        O  0.66231305  0.99843175  0.60591482    -0.82900
O270        O  0.57231355  0.04842415  0.50428785    -0.78500
O271        O  0.67566018  0.96597995  0.57564876    -0.90200
O272        O  0.73890246  0.06472562  0.51725132    -0.76100
O273        O  0.65961513  0.07029557  0.52564595    -0.85600
O274        O  0.69993658  0.04891344  0.56318681    -0.85300
O275        O  0.58388137  0.04620884  0.54440849    -0.72100
O276        O  0.62070661  0.02630762  0.57922639    -0.84200
Zr277      Zr  0.61837638  0.16125853  0.57325894     2.26400
Zr278      Zr  0.59611321  0.10678687  0.52372839     2.06300
Zr279      Zr  0.67100219  0.06808947  0.59611799     2.10000
Zr280      Zr  0.71053617  0.10924530  0.54321844     1.78800
O281        O  0.68492953  0.04868237  0.63205623    -0.93000
O282        O  0.72686407  0.15159909  0.51323456    -0.40800
O283        O  0.68356307  0.12833648  0.57647084    -0.77400
O284        O  0.64774347  0.14713099  0.53998113    -0.96100
O285        O  0.56761614  0.12144268  0.55661935    -0.89400
O286        O  0.60674009  0.10227936  0.59412789    -0.92300
C287        C  0.73016644  0.02937380  0.51025746     1.01500
C288        C  0.67528982  0.96753230  0.59601627     1.14400
C289        C  0.57377992  0.00960002  0.50575074     1.05200
O290        O  0.63832960  0.13610791  0.49641414    -0.94400
O291        O  0.54907761  0.16516715  0.52982506    -0.90200
O292        O  0.58186258  0.20894446  0.55120784    -0.83300
C293        C  0.55239562  0.20014975  0.53887340     1.11800
O294        O  0.52653592  0.99496611  0.57868235    -0.96400
Zr295      Zr  0.55741846  0.06243855  0.57721045     1.88900
O296        O  0.55390075  0.17800741  0.58911067    -0.73100
O297        O  0.55060863  0.12485983  0.49506711    -0.52300
O298        O  0.49123633  0.05803133  0.55991145    -0.97000
O299        O  0.54390701  0.04305431  0.61318338    -0.54200
O300        O  0.51720850  0.11933501  0.58819825    -0.73600
C301        C  0.52131686  0.15733925  0.59202425     0.98800
O302        O  0.65036925  0.22806287  0.57574771    -0.62400
O303        O  0.74541427  0.07309851  0.59706622    -0.57200
O304        O  0.63417540  0.17342037  0.60897243    -0.93900
O305        O  0.66256282  0.11723506  0.62369291    -0.92300
O306        O  0.77843608  0.09043732  0.55552965    -0.92700
O307        O  0.75000194  0.16897730  0.55326193    -0.91400
C308        C  0.64770665  0.15313498  0.62450621     1.17600
H309        H  0.72474920  0.03309717  0.56465048     0.33600
H310        H  0.65219876  0.17215461  0.53249767     0.44400
H311        H  0.59495017  0.10837564  0.60750800     0.37900
H312        H  0.56030437  0.03076516  0.54030133     0.34400
H313        H  0.75714165  0.15190930  0.51266371     0.26200
H314        H  0.56190472  0.11168666  0.48243238     0.32100
H315        H  0.49205710  0.07952399  0.54915852     0.38100
H316        H  0.79667150  0.09463755  0.54342967     0.32500
H317        H  0.75124876  0.09274592  0.60837163     0.31400
H318        H  0.71284221  0.03703166  0.63219316     0.33100
H319        H  0.53198738  0.06759806  0.61981779     0.32000
H320        H  0.72976460  0.19136766  0.55364978     0.36000
H321        H  0.67575023  0.22356095  0.58382291     0.28800
H322        H  0.65381090  0.93216555  0.52554209     0.33000
H323        H  0.50100785  0.99824636  0.58677525     0.35900
H324        H  0.75504104  0.04657602  0.60244198     0.28500
H325        H  0.66005478  0.23397857  0.56148500     0.41300
H326        H  0.64396813  0.11312483  0.48685414     0.31400
H327        H  0.71869529  0.13535324  0.50096397     0.39000
H328        H  0.57118584  0.04010786  0.61961542     0.30900
H329        H  0.52457857  0.11053818  0.49785911     0.30900
H330        H  0.61897544  0.92798227  0.54220413     0.31200
Zr331      Zr  0.76413251  0.88685356  0.69533203     2.17500
O332        O  0.68999276  0.88100014  0.69828182    -0.51200
O333        O  0.75406818  0.93919987  0.72303649    -0.74400
O334        O  0.74431735  0.83342812  0.72112005    -0.81200
O335        O  0.75863364  0.90691995  0.63512071    -0.82900
O336        O  0.80288789  0.80817044  0.73538048    -0.78500
O337        O  0.72181939  0.91378683  0.66472893    -0.90200
O338        O  0.80966488  0.98069186  0.72432357    -0.76100
O339        O  0.82224637  0.89826158  0.71745074    -0.85600
O340        O  0.80351334  0.94075003  0.68032597    -0.85300
O341        O  0.80366476  0.82403604  0.69599040    -0.72100
O342        O  0.78551385  0.86300534  0.66161189    -0.84200
Zr343      Zr  0.92086743  0.86500957  0.67109844     2.26400
Zr344      Zr  0.86191412  0.83668783  0.71859507     2.06300
Zr345      Zr  0.82720146  0.91611244  0.64729621     2.10000
Zr346      Zr  0.86154692  0.95157152  0.70224112     1.78800
O347        O  0.80953569  0.93656587  0.61194893    -0.93000
O348        O  0.89569456  0.96067300  0.73564104    -0.40800
O349        O  0.88505414  0.92871478  0.66886866    -0.77400
O350        O  0.90230985  0.89058940  0.70472360    -0.96100
O351        O  0.88080846  0.81211351  0.68553316    -0.89400
O352        O  0.86389892  0.85334416  0.64854184    -0.92300
C353        C  0.77418530  0.96981399  0.73055275     1.01500
C354        C  0.72562099  0.91611595  0.64447378     1.14400
C355        C  0.76399723  0.80890702  0.73337601     1.05200
O356        O  0.88466002  0.87686868  0.74823341    -0.94400
O357        O  0.92262044  0.79213415  0.71315434    -0.90200
O358        O  0.96768625  0.82594060  0.69280587    -0.83300
C359        C  0.95828069  0.79599942  0.70467126     1.11800
O360        O  0.75691193  0.77078632  0.65858389    -0.96400
Zr361      Zr  0.82428566  0.80140748  0.66304720     1.88900
O362        O  0.94254791  0.80223810  0.65509303    -0.73100
O363        O  0.87992195  0.78970648  0.74653506    -0.52300
O364        O  0.81831940  0.73311960  0.67744244    -0.97000
O365        O  0.81167491  0.79080697  0.62601721    -0.54200
O366        O  0.88479803  0.76375629  0.65425092    -0.73600
C367        C  0.92334031  0.76896606  0.65175917     0.98800
O368        O  0.98495383  0.90284850  0.67116658    -0.62400
O369        O  0.83182216  0.99003858  0.64942754    -0.57200
O370        O  0.93546242  0.88268989  0.63574751    -0.93900
O371        O  0.87876963  0.90991584  0.62060496    -0.92300
O372        O  0.84862703  0.02171776  0.69194873    -0.92700
O373        O  0.92214329  0.99295872  0.69597620    -0.91400
C374        C  0.91532085  0.89615328  0.62009795     1.17600
H375        H  0.78689395  0.96508898  0.67912784     0.33600
H376        H  0.92641687  0.89513966  0.71302551     0.44400
H377        H  0.87158037  0.84247496  0.63509743     0.37900
H378        H  0.78851721  0.79970886  0.69905467     0.34400
H379        H  0.90645378  0.98875339  0.73529541     0.26200
H380        H  0.86429960  0.79848696  0.75895046     0.32100
H381        H  0.83650764  0.73326151  0.68974584     0.38100
H382        H  0.85464632  0.03815266  0.70449650     0.32500
H383        H  0.84864024  0.99809716  0.63730406     0.31400
H384        H  0.79772198  0.96420131  0.61303671     0.33100
H385        H  0.83858053  0.78351825  0.61993001     0.32000
H386        H  0.94367539  0.97323535  0.69210235     0.36000
H387        H  0.97888328  0.92815641  0.66342219     0.28800
H388        H  0.68391256  0.88543089  0.71316642     0.33000
H389        H  0.76101975  0.74735583  0.64915769     0.35900
H390        H  0.80398821  0.00006859  0.64618197     0.28500
H391        H  0.98844490  0.91183137  0.68575256     0.41300
H392        H  0.85943765  0.88195149  0.75638425     0.31400
H393        H  0.87348539  0.96158426  0.74611555     0.39000
H394        H  0.80552020  0.81813261  0.62043582     0.30900
H395        H  0.86783398  0.76320916  0.74253254     0.30900
H396        H  0.68384148  0.85185196  0.69578483     0.31200
Zr397      Zr  0.89863321  0.52279302  0.55282502     2.17500
O398        O  0.90595306  0.44972400  0.54695097    -0.51200
O399        O  0.84376927  0.50811725  0.52695177    -0.74400
O400        O  0.86681001  0.48525194  0.58396139    -0.81200
O401        O  0.98547390  0.55750647  0.51488152    -0.82900
O402        O  0.86846875  0.52380169  0.61326915    -0.78500
O403        O  0.96392844  0.50371595  0.53442213    -0.90200
O404        O  0.80236630  0.56367758  0.52535758    -0.76100
O405        O  0.84764072  0.56479028  0.56875845    -0.85600
O406        O  0.88580619  0.57741645  0.52844218    -0.85300
O407        O  0.92736605  0.54513302  0.58546970    -0.72100
O408        O  0.95412815  0.56603905  0.54894421    -0.84200
Zr409      Zr  0.92856960  0.67957153  0.57084626     2.26400
Zr410      Zr  0.87773854  0.59164198  0.59997124     2.06300
Zr411      Zr  0.94683350  0.61684675  0.52382537     2.10000
Zr412      Zr  0.83492475  0.61873671  0.54477433     1.78800
O413        O  0.99119569  0.61953125  0.49316370    -0.93000
O414        O  0.76918868  0.60888788  0.56196414    -0.40800
O415        O  0.89592092  0.65934442  0.53899720    -0.77400
O416        O  0.86358394  0.64630095  0.57641965    -0.96100
O417        O  0.94105100  0.62502424  0.59434157    -0.89400
O418        O  0.97812716  0.63659045  0.55513951    -0.92300
C419        C  0.81230305  0.52745230  0.51983003     1.01500
C420        C  0.98944356  0.52114026  0.52162717     1.14400
C421        C  0.86041565  0.49057339  0.60391085     1.05200
O422        O  0.80545642  0.60839871  0.60308886    -0.94400
O423        O  0.90729158  0.63994111  0.62458912    -0.90200
O424        O  0.92448264  0.69726054  0.60695163    -0.83300
C425        C  0.91984188  0.67689215  0.62375753     1.11800
O426        O  0.01905956  0.51562082  0.58619456    -0.96400
Zr427      Zr  0.98931709  0.58197720  0.57877298     1.88900
O428        O  0.99608129  0.69979575  0.58233820    -0.73100
O429        O  0.85941350  0.58957203  0.63684088    -0.52300
O430        O  0.00556815  0.58107856  0.61601215    -0.97000
O431        O  0.05249588  0.56561421  0.56062863    -0.54200
O432        O  0.03110291  0.64050298  0.58616456    -0.73600
C433        C  0.02851486  0.67944123  0.58632871     0.98800
O434        O  0.89285051  0.74448494  0.57279465    -0.62400
O435        O  0.90176245  0.63180535  0.49427892    -0.57200
O436        O  0.96244769  0.72504329  0.54659507    -0.93900
O437        O  0.98638531  0.68230027  0.52174530    -0.92300
O438        O  0.81728514  0.64747691  0.51102745    -0.92700
O439        O  0.79369396  0.68033571  0.54635553    -0.91400
C440        C  0.98642375  0.71696709  0.53134618     1.17600
H441        H  0.87821158  0.56825050  0.51490505     0.33600
H442        H  0.84458206  0.66531762  0.58268144     0.44400
H443        H  0.00386621  0.64883141  0.55202425     0.37900
H444        H  0.93397065  0.52276931  0.59443819     0.34400
H445        H  0.74850108  0.61301018  0.55089925     0.26200
H446        H  0.83366053  0.57393577  0.63785780     0.32100
H447        H  0.03516837  0.57467320  0.61673118     0.38100
H448        H  0.82094506  0.62500098  0.50091374     0.32500
H449        H  0.91501898  0.65457179  0.48675925     0.31400
H450        H  0.97714460  0.60390534  0.48209974     0.33100
H451        H  0.07468684  0.57307930  0.57045025     0.32000
H452        H  0.81377663  0.70256621  0.54827349     0.36000
H453        H  0.88396745  0.74998207  0.55837389     0.28800
H454        H  0.87811568  0.43831032  0.54862199     0.33000
H455        H  0.01127343  0.49864107  0.57412573     0.35900
H456        H  0.90426350  0.60823677  0.48477401     0.28500
H457        H  0.86714469  0.73852488  0.58039732     0.41300
H458        H  0.79154262  0.58169877  0.60379289     0.31400
H459        H  0.76776768  0.57945028  0.56500115     0.39000
H460        H  0.05430978  0.58612940  0.54944572     0.30900
H461        H  0.88028586  0.57227099  0.64370855     0.30900
H462        H  0.92127998  0.43969949  0.55921196     0.31200
Zr463      Zr  0.75234443  0.39735359  0.69725788     2.17500
O464        O  0.82227728  0.39867786  0.71062652    -0.51200
O465        O  0.74978685  0.45744315  0.72003851    -0.74400
O466        O  0.79971449  0.42955719  0.66933088    -0.81200
O467        O  0.70807198  0.31534693  0.73591292    -0.82900
O468        O  0.77104769  0.42709194  0.63716955    -0.78500
O469        O  0.76735729  0.34015467  0.72190370    -0.90200
O470        O  0.69104364  0.49134473  0.71221969    -0.76100
O471        O  0.71425145  0.43737915  0.67327277    -0.85600
O472        O  0.68637045  0.40837058  0.71369847    -0.85300
O473        O  0.74916877  0.35752445  0.66611547    -0.72100
O474        O  0.71263121  0.33918458  0.70008737    -0.84200
Zr475      Zr  0.61257277  0.34316415  0.66344704     2.26400
Zr476      Zr  0.70698313  0.39583039  0.64280743     2.06300
Zr477      Zr  0.65091435  0.34494437  0.71799173     2.10000
Zr478      Zr  0.64936898  0.44874407  0.68925269     1.78800
O479        O  0.64100099  0.30543441  0.74981585    -0.93000
O480        O  0.65858082  0.50831406  0.66717442    -0.40800
O481        O  0.61327963  0.38520752  0.69400773    -0.77400
O482        O  0.64153142  0.40934479  0.65784104    -0.96100
O483        O  0.67755575  0.33069318  0.64826868    -0.89400
O484        O  0.64930327  0.30350663  0.68803837    -0.92300
C485        C  0.72463087  0.48720212  0.72240262     1.01500
C486        C  0.74704094  0.31521199  0.73379911     1.14400
C487        C  0.80026735  0.43664739  0.64919557     1.05200
O488        O  0.69176210  0.45934525  0.62500405    -0.94400
O489        O  0.66659308  0.37967421  0.61301056    -0.90200
O490        O  0.61254818  0.34434519  0.62586213    -0.83300
C491        C  0.63391892  0.35900806  0.61086652     1.11800
O492        O  0.78589499  0.27205991  0.67928430    -0.96400
Zr493      Zr  0.71579682  0.29395642  0.67311908     1.88900
O494        O  0.60747185  0.27221305  0.65386747    -0.73100
O495        O  0.74571780  0.36201119  0.61531071    -0.52300
O496        O  0.74210062  0.27128516  0.63930295    -0.97000
O497        O  0.72798652  0.23899708  0.69766356    -0.54200
O498        O  0.66840375  0.24295726  0.66200778    -0.73600
C499        C  0.63165905  0.24169188  0.65524427     0.98800
O500        O  0.54586999  0.36665039  0.65147212    -0.62400
O501        O  0.62252406  0.39556112  0.74201715    -0.57200
O502        O  0.55753978  0.31631514  0.68444766    -0.93900
O503        O  0.58424339  0.30631461  0.71661377    -0.92300
O504        O  0.60204001  0.46988694  0.71649781    -0.92700
O505        O  0.58549501  0.48137903  0.67923808    -0.91400
C506        C  0.55524697  0.30235900  0.70301314     1.17600
H507        H  0.68821777  0.42022757  0.72747760     0.33600
H508        H  0.62473323  0.42435324  0.64794054     0.44400
H509        H  0.63633172  0.27816582  0.69155867     0.37900
H510        H  0.77601481  0.35295291  0.66041547     0.34400
H511        H  0.65955413  0.53168456  0.67698921     0.26200
H512        H  0.75188759  0.38342989  0.60490247     0.32100
H513        H  0.74059487  0.24116158  0.63968771     0.38100
H514        H  0.61939619  0.47779951  0.72847521     0.32500
H515        H  0.59263779  0.39047396  0.74206133     0.31400
H516        H  0.61330693  0.31226007  0.75487980     0.33100
H517        H  0.72203857  0.21354458  0.68989907     0.32000
H518        H  0.56985033  0.45985389  0.67198478     0.36000
H519        H  0.55084790  0.39440015  0.64603029     0.28800
H520        H  0.83186024  0.42698324  0.70858468     0.33000
H521        H  0.79758734  0.29358116  0.68829164     0.35900
H522        H  0.63182257  0.38718704  0.75601503     0.28500
H523        H  0.53937297  0.35016327  0.63903591     0.41300
H524        H  0.70762638  0.45795863  0.61190674     0.31400
H525        H  0.68661252  0.50640139  0.66165358     0.39000
H526        H  0.70534698  0.24140399  0.70774132     0.30900
H527        H  0.77246989  0.35487004  0.62144241     0.30900
H528        H  0.83824640  0.38245512  0.70050263     0.31200
Zr529      Zr  0.77353588  0.63531192  0.19243788     2.17500
O530        O  0.70037910  0.64566927  0.19733975    -0.51200
O531        O  0.75567708  0.58301957  0.21863398    -0.74400
O532        O  0.73407932  0.60803457  0.16083314    -0.81200
O533        O  0.81299803  0.72212209  0.23020287    -0.82900
O534        O  0.77483520  0.60579161  0.13229926    -0.78500
O535        O  0.75728197  0.70038597  0.21184527    -0.90200
O536        O  0.80789599  0.53743824  0.22032636    -0.76100
O537        O  0.81332380  0.58177287  0.17749276    -0.85600
O538        O  0.82735156  0.62074246  0.21736655    -0.85300
O539        O  0.79984241  0.66224798  0.16013845    -0.72100
O540        O  0.81839786  0.69144233  0.19702562    -0.84200
Zr541      Zr  0.93340490  0.65494084  0.17575325     2.26400
Zr542      Zr  0.84300895  0.60911054  0.14636441     2.06300
Zr543      Zr  0.87082363  0.67906651  0.22226331     2.10000
Zr544      Zr  0.86610039  0.56682069  0.20203081     1.78800
O545        O  0.87013485  0.72050066  0.25374525    -0.93000
O546        O  0.85446477  0.49992902  0.18669553    -0.40800
O547        O  0.91007521  0.62521487  0.20768788    -0.77400
O548        O  0.89640783  0.59228047  0.17037385    -0.96100
O549        O  0.88068032  0.67005401  0.15149980    -0.89400
O550        O  0.89318494  0.70752505  0.19067319    -0.92300
C551        C  0.77255664  0.55049282  0.22587952     1.01500
C552        C  0.77570480  0.72588012  0.22433588     1.14400
C553        C  0.74008742  0.60139362  0.14095822     1.05200
O554        O  0.85543834  0.53614290  0.14467351    -0.94400
O555        O  0.89446440  0.63200037  0.12173954    -0.90200
O556        O  0.95206060  0.64724790  0.13989649    -0.83300
C557        C  0.93221727  0.64218645  0.12291326     1.11800
O558        O  0.77561190  0.75483754  0.15863090    -0.96400
Zr559      Zr  0.84071170  0.72191894  0.16604462     1.88900
O560        O  0.95891732  0.72016463  0.16431848    -0.73100
O561        O  0.83916856  0.58918066  0.10974239    -0.52300
O562        O  0.83918910  0.73695413  0.12899456    -0.97000
O563        O  0.82769724  0.78535881  0.18451045    -0.54200
O564        O  0.90259629  0.75984225  0.15975049    -0.73600
C565        C  0.94144394  0.75413129  0.16043866     0.98800
O566        O  0.99725546  0.61672019  0.17589040    -0.62400
O567        O  0.88367076  0.63308860  0.25125298    -0.57200
O568        O  0.97951177  0.68762054  0.19999555    -0.93900
O569        O  0.93833864  0.71526734  0.22456737    -0.92300
O570        O  0.89102511  0.55027267  0.23673740    -0.92700
O571        O  0.92648618  0.52345102  0.20086131    -0.91400
C572        C  0.97286243  0.71312486  0.21472858     1.17600
H573        H  0.81730314  0.61403299  0.23098719     0.33600
H574        H  0.91472893  0.57203873  0.16439879     0.44400
H575        H  0.90702485  0.73273731  0.19380530     0.37900
H576        H  0.77814663  0.67023389  0.15089177     0.34400
H577        H  0.85567467  0.48074742  0.19854737     0.26200
H578        H  0.82092406  0.56536740  0.10898140     0.32100
H579        H  0.83166051  0.71088609  0.12230302     0.38100
H580        H  0.86697350  0.55257782  0.24602057     0.32500
H581        H  0.91111823  0.64067233  0.25642395     0.31400
H582        H  0.89703710  0.71600051  0.26045368     0.33100
H583        H  0.84281896  0.80637817  0.17658120     0.32000
H584        H  0.94981961  0.54258346  0.20070121     0.36000
H585        H  0.99654060  0.60106423  0.18902221     0.28800
H586        H  0.68811177  0.61829830  0.19593971     0.33000
H587        H  0.75705152  0.74521238  0.16976202     0.35900
H588        H  0.86455720  0.64162585  0.26240487     0.28500
H589        H  0.99400604  0.59595006  0.16484769     0.41300
H590        H  0.82783007  0.52389474  0.14382363     0.31400
H591        H  0.82531185  0.49988939  0.18253405     0.39000
H592        H  0.84301193  0.78269509  0.19769945     0.30900
H593        H  0.82424136  0.61134634  0.10241572     0.30900
H594        H  0.69127933  0.66057477  0.18476826     0.31200
Zr595      Zr  0.64853323  0.51002906  0.04294842     2.17500
O596        O  0.64675870  0.58103170  0.03222666    -0.51200
O597        O  0.70147150  0.51379264  0.01536017    -0.74400
O598        O  0.68189525  0.55207349  0.07258263    -0.81200
O599        O  0.55523291  0.47399129  0.00774775    -0.82900
O600        O  0.67908660  0.51766773  0.10317463    -0.78500
O601        O  0.58335581  0.52938923  0.02375223    -0.90200
O602        O  0.73422683  0.45266746  0.01369836    -0.76100
O603        O  0.69776777  0.46644255  0.05910423    -0.85600
O604        O  0.65284213  0.44914841  0.02154748    -0.85300
O605        O  0.62120442  0.49575951  0.07697489    -0.72100
O606        O  0.58614716  0.47313725  0.04180385    -0.84200
Zr607      Zr  0.60809915  0.36004182  0.06990819     2.26400
Zr608      Zr  0.66953395  0.44888692  0.09226270     2.06300
Zr609      Zr  0.58879265  0.41378875  0.02023707     2.10000
Zr610      Zr  0.70223032  0.40649053  0.03816246     1.78800
O611        O  0.54213985  0.40982812  0.99068652    -0.93000
O612        O  0.77274000  0.41436549  0.04983586    -0.40800
O613        O  0.63767713  0.37094384  0.03626634    -0.77400
O614        O  0.67584458  0.38864197  0.07187774    -0.96100
O615        O  0.60309317  0.41966784  0.09085556    -0.89400
O616        O  0.55982005  0.40338387  0.05342543    -0.92300
C617        C  0.72793811  0.48911582  0.00738505     1.01500
C618        C  0.55559749  0.51198097  0.01206201     1.14400
C619        C  0.68777681  0.54941898  0.09279718     1.05200
O620        O  0.74242963  0.43413590  0.09043995    -0.94400
O621        O  0.64921272  0.40414150  0.12027385    -0.90200
O622        O  0.61845169  0.34842465  0.10635723    -0.83300
C623        C  0.63227440  0.36920548  0.12170585     1.11800
O624        O  0.52964725  0.53237431  0.07616442    -0.96400
Zr625      Zr  0.55613532  0.46323867  0.07436881     1.88900
O626        O  0.54173359  0.34812808  0.08523527    -0.73100
O627        O  0.69513677  0.45504741  0.12789964    -0.52300
O628        O  0.54638760  0.48130479  0.11075005    -0.97000
O629        O  0.49136596  0.47719689  0.05699805    -0.54200
O630        O  0.51334875  0.41103654  0.08763643    -0.73600
C631        C  0.51257049  0.37244570  0.08987455     0.98800
O632        O  0.64005085  0.29326470  0.07201801    -0.62400
O633        O  0.62919196  0.38807552  0.99123237    -0.57200
O634        O  0.56901328  0.31243000  0.04899993    -0.93900
O635        O  0.54527875  0.35183827  0.02270520    -0.92300
O636        O  0.71094222  0.36744698  0.00627509    -0.92700
O637        O  0.73626795  0.34207424  0.04536624    -0.91400
C638        C  0.54464655  0.31909835  0.03377028     1.17600
H639        H  0.65904027  0.45499549  0.00709252     0.33600
H640        H  0.69406360  0.36969487  0.07875045     0.44400
H641        H  0.53266990  0.39222456  0.05201667     0.37900
H642        H  0.61607876  0.52027201  0.08483177     0.34400
H643        H  0.78959107  0.40413806  0.03814575     0.26200
H644        H  0.72085566  0.47044654  0.12706759     0.32100
H645        H  0.57432654  0.48648527  0.11609014     0.38100
H646        H  0.73991805  0.37132141  0.00246382     0.32500
H647        H  0.61464959  0.36330686  0.98667852     0.31400
H648        H  0.51466324  0.40540898  0.99677465     0.33100
H649        H  0.47706828  0.45072843  0.05643564     0.32000
H650        H  0.71579570  0.32099944  0.04179057     0.36000
H651        H  0.64950104  0.28759430  0.05765039     0.28800
H652        H  0.67574610  0.58964773  0.03191224     0.33000
H653        H  0.54873803  0.54859791  0.06756808     0.35900
H654        H  0.62477672  0.40791697  0.97981347     0.28500
H655        H  0.66551924  0.29772111  0.07998420     0.41300
H656        H  0.75595504  0.46077526  0.09248789     0.31400
H657        H  0.77768081  0.44407181  0.04992679     0.39000
H658        H  0.49882611  0.48280031  0.04234690     0.30900
H659        H  0.67580205  0.47343337  0.13539581     0.30900
H660        H  0.63481700  0.59573722  0.04423994     0.31200
Zr661      Zr  0.89802351  0.98355699  0.05729377     2.17500
O662        O  0.90288810  0.05691503  0.05249298    -0.51200
O663        O  0.83432879  0.98510401  0.03636530    -0.74400
O664        O  0.93543837  0.00140893  0.02405790    -0.81200
O665        O  0.87220505  0.99530960  0.11837237    -0.82900
O666        O  0.95945249  0.94304960  0.00919147    -0.78500
O667        O  0.86755189  0.02636891  0.08674249    -0.90200
O668        O  0.80008590  0.92685731  0.04403697    -0.76100
O669        O  0.88121142  0.92095134  0.04006288    -0.85600
O670        O  0.86025348  0.94321790  0.08169366    -0.85300
O671        O  0.96216495  0.94933271  0.04976701    -0.72100
O672        O  0.94223616  0.97232251  0.08704540    -0.84200
Zr673      Zr  0.94760471  0.83698024  0.08383590     2.26400
Zr674      Zr  0.94418340  0.88677526  0.03179557     2.06300
Zr675      Zr  0.90434047  0.93077395  0.11099141     2.10000
Zr676      Zr  0.84256107  0.88199031  0.06440117     1.78800
O677        O  0.94070565  0.97061729  0.13704544    -0.93000
O678        O  0.81420041  0.84005943  0.03665193    -0.40800
O679        O  0.88468411  0.86877340  0.09409430    -0.77400
O680        O  0.90356342  0.84623436  0.05455830    -0.96100
O681        O  0.98736804  0.87650278  0.06071611    -0.89400
O682        O  0.96677103  0.89791884  0.10177021    -0.92300
C683        C  0.80336940  0.96096718  0.03458315     1.01500
C684        C  0.86108035  0.02507680  0.10687495     1.14400
C685        C  0.95630587  0.98175866  0.00994704     1.05200
O686        O  0.89308966  0.85408053  0.00988835    -0.94400
O687        O  0.99501093  0.83092157  0.03376740    -0.90200
O688        O  0.97205309  0.78800649  0.05850861    -0.83300
C689        C  0.99591666  0.79646081  0.04333223     1.11800
O690        O  0.03171694  0.00624642  0.08084208    -0.96400
Zr691      Zr  0.00471197  0.93737632  0.07841831     1.88900
O692        O  0.01901730  0.82271100  0.08832317    -0.73100
O693        O  0.97647555  0.86610790  0.99917588    -0.52300
O694        O  0.05584932  0.95316885  0.05200065    -0.97000
O695        O  0.04090307  0.95150222  0.11080506    -0.54200
O696        O  0.05214476  0.88104620  0.07966550    -0.73600
C697        C  0.05136803  0.84314649  0.08447559     0.98800
O698        O  0.92028183  0.76967888  0.09162778    -0.62400
O699        O  0.84575040  0.91448370  0.13285843    -0.57200
O700        O  0.95128799  0.82695867  0.12062000    -0.93900
O701        O  0.92516474  0.88205586  0.13751046    -0.92300
O702        O  0.78174251  0.89474740  0.08530656    -0.92700
O703        O  0.81400625  0.81906475  0.07815852    -0.91400
C704        C  0.94207474  0.84680251  0.13712936     1.17600
H705        H  0.83532813  0.95664309  0.08592267     0.33600
H706        H  0.89694886  0.82043714  0.04831439     0.44400
H707        H  0.98446230  0.89291736  0.11348159     0.37900
H708        H  0.98218441  0.96577637  0.04298870     0.34400
H709        H  0.78444760  0.83914464  0.03953916     0.26200
H710        H  0.96055436  0.87882151  0.98783140     0.32100
H711        H  0.08238408  0.95193315  0.05940329     0.38100
H712        H  0.75880378  0.88396474  0.07688122     0.32500
H713        H  0.84980855  0.93089327  0.14564142     0.31400
H714        H  0.92717413  0.96377777  0.15035997     0.33100
H715        H  0.05438540  0.92558330  0.11459345     0.32000
H716        H  0.83637637  0.79896330  0.07681357     0.36000
H717        H  0.94213666  0.75581590  0.09954789     0.28800
H718        H  0.89010435  0.06222912  0.03882400     0.33000
H719        H  0.01293531  0.02280012  0.07222695     0.35900
H720        H  0.82214343  0.92726155  0.12582785     0.28500
H721        H  0.89824763  0.77449256  0.10192685     0.41300
H722        H  0.88211844  0.87633519  0.00113335     0.31400
H723        H  0.81646990  0.85692581  0.02396995     0.39000
H724        H  0.01937408  0.95540848  0.12142404     0.30900
H725        H  0.00343515  0.87992825  0.99890229     0.30900
H726        H  0.93240654  0.06251145  0.05040652     0.31200
Zr727      Zr  0.75017006  0.12766144  0.19619732     2.17500
O728        O  0.82365178  0.13032248  0.20246100    -0.51200
O729        O  0.74585242  0.06582306  0.21815011    -0.74400
O730        O  0.76476439  0.16645805  0.22919852    -0.81200
O731        O  0.77009152  0.10056092  0.13616584    -0.82900
O732        O  0.70389393  0.18767957  0.24280676    -0.78500
O733        O  0.79634965  0.09412521  0.16883524    -0.90200
O734        O  0.68723601  0.03356693  0.20863012    -0.76100
O735        O  0.68417808  0.11365896  0.21103913    -0.85600
O736        O  0.71201217  0.09013024  0.17088612    -0.85300
O737        O  0.71643885  0.19291247  0.20181027    -0.72100
O738        O  0.74444509  0.17081231  0.16583991    -0.84200
Zr739      Zr  0.60825727  0.18074488  0.16358963     2.26400
Zr740      Zr  0.65067836  0.17739064  0.21738419     2.06300
Zr741      Zr  0.70504213  0.13306444  0.14095463     2.10000
Zr742      Zr  0.64720373  0.07555365  0.18565613     1.78800
O743        O  0.74820512  0.16598288  0.11507797    -0.93000
O744        O  0.60054618  0.04494233  0.21076707    -0.40800
O745        O  0.63950841  0.11678881  0.15529166    -0.77400
O746        O  0.61174962  0.13774911  0.19350329    -0.96100
O747        O  0.64577415  0.22016942  0.18783895    -0.89400
O748        O  0.67296568  0.19640270  0.14827489    -0.92300
C749        C  0.71995827  0.03624695  0.21945876     1.01500
C750        C  0.79768634  0.08798552  0.14866257     1.14400
C751        C  0.74297912  0.18663617  0.24270018     1.05200
O752        O  0.61298965  0.12588499  0.23666186    -0.94400
O753        O  0.59531556  0.22829398  0.21433768    -0.90200
O754        O  0.55699138  0.21070080  0.18643641    -0.83300
C755        C  0.56299468  0.23167595  0.20298665     1.11800
O756        O  0.77994765  0.25996700  0.17595885    -0.96400
Zr757      Zr  0.71022894  0.23444676  0.17243913     1.88900
O758        O  0.59856105  0.25057657  0.15420680    -0.73100
O759        O  0.62739777  0.21312626  0.24857337    -0.52300
O760        O  0.71396105  0.28722994  0.19906284    -0.97000
O761        O  0.73902469  0.26451476  0.14098029    -0.54200
O762        O  0.65878014  0.28236589  0.16125911    -0.73600
C763        C  0.62160866  0.28191684  0.15486045     0.98800
O764        O  0.54178313  0.15414879  0.15302084    -0.62400
O765        O  0.68943254  0.07110107  0.12173131    -0.57200
O766        O  0.60491228  0.18096311  0.12627146    -0.93900
O767        O  0.66272379  0.15419605  0.11197358    -0.92300
O768        O  0.66285565  0.01552965  0.16491363    -0.92700
O769        O  0.58467804  0.04964924  0.16986298    -0.91400
C770        C  0.62768738  0.17150220  0.11073133     1.17600
H771        H  0.72544834  0.06464371  0.16738774     0.33600
H772        H  0.58465530  0.13231164  0.19873931     0.44400
H773        H  0.67076334  0.21328610  0.13622668     0.37900
H774        H  0.73188783  0.21297781  0.20926138     0.34400
H775        H  0.60282732  0.01523781  0.20829295     0.26200
H776        H  0.63763020  0.19779527  0.26072303     0.32100
H777        H  0.68535742  0.29607961  0.20116445     0.38100
H778        H  0.65512323  0.99231538  0.17386767     0.32500
H779        H  0.65938860  0.07154757  0.11977412     0.31400
H780        H  0.74975019  0.14640188  0.10338196     0.33100
H781        H  0.71540159  0.27365707  0.13259564     0.32000
H782        H  0.56354655  0.07012071  0.17333200     0.36000
H783        H  0.54812098  0.12847066  0.14562160     0.28800
H784        H  0.82759663  0.11684249  0.21604215     0.33000
H785        H  0.77792672  0.28987592  0.17476816     0.35900
H786        H  0.70074075  0.07586173  0.10765815     0.28500
H787        H  0.52848884  0.14527860  0.16607662     0.41300
H788        H  0.62766467  0.12344612  0.25008986     0.31400
H789        H  0.61358711  0.04911825  0.22445857     0.39000
H790        H  0.75049305  0.24123847  0.13312363     0.30900
H791        H  0.64247860  0.23930481  0.24877435     0.30900
H792        H  0.82988803  0.15941943  0.20505272     0.31200
Zr793      Zr  0.25406098  0.89394052  0.19782024     2.17500
O794        O  0.32437945  0.89389642  0.21068280    -0.51200
O795        O  0.25170441  0.95382882  0.22079793    -0.74400
O796        O  0.30072905  0.92694322  0.16988045    -0.81200
O797        O  0.21113313  0.80855553  0.23503049    -0.82900
O798        O  0.27231263  0.92420985  0.13764088    -0.78500
O799        O  0.27013503  0.83592262  0.22204809    -0.90200
O800        O  0.19100383  0.98568840  0.21469275    -0.76100
O801        O  0.21468103  0.93476071  0.17463993    -0.85600
O802        O  0.18816898  0.90330074  0.21459248    -0.85300
O803        O  0.25075540  0.85676138  0.16584790    -0.72100
O804        O  0.21522831  0.83524719  0.20021928    -0.84200
Zr805      Zr  0.11478556  0.83941569  0.16388921     2.26400
Zr806      Zr  0.20719735  0.89552408  0.14342903     2.06300
Zr807      Zr  0.15333977  0.83937432  0.21830586     2.10000
Zr808      Zr  0.14983918  0.94429944  0.19097518     1.78800
O809        O  0.14049949  0.80200318  0.25053418    -0.93000
O810        O  0.15827315  0.00853229  0.17255513    -0.40800
O811        O  0.11432015  0.88008380  0.19503283    -0.77400
O812        O  0.14186415  0.90664915  0.15895472    -0.96100
O813        O  0.17970392  0.82957532  0.14835244    -0.89400
O814        O  0.15340530  0.80007837  0.18779621    -0.92300
C815        C  0.22560846  0.98245806  0.22405257     1.01500
C816        C  0.25012596  0.80957682  0.23331419     1.14400
C817        C  0.30139645  0.93382147  0.14972884     1.05200
O818        O  0.19206306  0.96269351  0.12940221    -0.94400
O819        O  0.16744200  0.87741138  0.11358498    -0.90200
O820        O  0.11597687  0.83818010  0.12624743    -0.83300
C821        C  0.13683220  0.85380296  0.11129438     1.11800
O822        O  0.29136207  0.77598477  0.17743201    -0.96400
Zr823      Zr  0.21942102  0.79224756  0.17231496     1.88900
O824        O  0.11026621  0.76766997  0.15541871    -0.73100
O825        O  0.24241984  0.86483861  0.11381683    -0.52300
O826        O  0.24484546  0.76830359  0.13851545    -0.97000
O827        O  0.23428382  0.73741745  0.19647041    -0.54200
O828        O  0.17286327  0.73999906  0.16166906    -0.73600
C829        C  0.13517481  0.73760441  0.15642334     0.98800
O830        O  0.04757991  0.86378443  0.15330159    -0.62400
O831        O  0.12531646  0.88769413  0.24363413    -0.57200
O832        O  0.06304852  0.80440392  0.18354081    -0.93900
O833        O  0.08999381  0.79512723  0.21574218    -0.92300
O834        O  0.10306370  0.95975285  0.21937172    -0.92700
O835        O  0.08793078  0.97816564  0.17896842    -0.91400
C836        C  0.06283371  0.78768799  0.20150827     1.17600
H837        H  0.19032218  0.91447772  0.22843389     0.33600
H838        H  0.12458720  0.92169219  0.14942881     0.44400
H839        H  0.14205635  0.77407348  0.19127613     0.37900
H840        H  0.27746865  0.85292847  0.15982998     0.34400
H841        H  0.15353304  0.02980731  0.18322496     0.26200
H842        H  0.25147801  0.88753295  0.10485551     0.32100
H843        H  0.22197156  0.77215307  0.12860768     0.38100
H844        H  0.10855933  0.98857136  0.22289518     0.32500
H845        H  0.09814020  0.87665494  0.24747209     0.31400
H846        H  0.14146740  0.77294055  0.24659672     0.33100
H847        H  0.23289142  0.71215554  0.18805661     0.32000
H848        H  0.06902308  0.95571699  0.17531155     0.36000
H849        H  0.05246823  0.89157589  0.14798777     0.28800
H850        H  0.33302464  0.92275129  0.21052767     0.33000
H851        H  0.30163361  0.79789082  0.18662561     0.35900
H852        H  0.14220475  0.88413372  0.25628555     0.28500
H853        H  0.04040152  0.84759795  0.14082414     0.41300
H854        H  0.17812624  0.95760196  0.11598260     0.31400
H855        H  0.18783009  0.01041835  0.16945328     0.39000
H856        H  0.20988755  0.73623413  0.20552351     0.30900
H857        H  0.26793120  0.85289088  0.11950721     0.30900
H858        H  0.34053859  0.88094015  0.19944084     0.31200
Zr859      Zr  0.40246672  0.02275460  0.05466786     2.17500
O860        O  0.40968388  0.95004296  0.04770433    -0.51200
O861        O  0.34561606  0.01037639  0.02996926    -0.74400
O862        O  0.37167778  0.98362026  0.08559638    -0.81200
O863        O  0.48576257  0.06049290  0.01550230    -0.82900
O864        O  0.36579535  0.02273117  0.11463032    -0.78500
O865        O  0.46606400  0.00541581  0.03463272    -0.90200
O866        O  0.30372851  0.06564936  0.03115802    -0.76100
O867        O  0.35523542  0.06366937  0.07367405    -0.85600
O868        O  0.38609719  0.07890022  0.03180106    -0.85300
O869        O  0.43771379  0.04253824  0.08588294    -0.72100
O870        O  0.45641807  0.06720791  0.04968729    -0.84200
Zr871      Zr  0.43627652  0.17780126  0.07445847     2.26400
Zr872      Zr  0.39173958  0.08712748  0.10380261     2.06300
Zr873      Zr  0.44604780  0.11861309  0.02544859     2.10000
Zr874      Zr  0.33852997  0.11892679  0.05118982     1.78800
O875        O  0.48284307  0.12118646  0.99233768    -0.93000
O876        O  0.27528202  0.10717380  0.07027342    -0.40800
O877        O  0.39831838  0.16004333  0.04373647    -0.77400
O878        O  0.37298512  0.14325872  0.08201405    -0.96100
O879        O  0.45350761  0.12225673  0.09641691    -0.89400
O880        O  0.48294489  0.13673048  0.05549380    -0.92300
C881        C  0.31345460  0.03018050  0.02424148     1.01500
C882        C  0.49058715  0.02386151  0.02174302     1.14400
C883        C  0.36141569  0.98904856  0.10512630     1.05200
O884        O  0.32607392  0.10344214  0.11960064    -0.94400
O885        O  0.40793055  0.13811528  0.12917609    -0.90200
O886        O  0.43791084  0.18991873  0.11142276    -0.83300
C887        C  0.42652025  0.17221232  0.12823463     1.11800
O888        O  0.52908367  0.01333102  0.08025234    -0.96400
Zr889      Zr  0.49844845  0.08058542  0.07750321     1.88900
O890        O  0.50547186  0.19821463  0.08255013    -0.73100
O891        O  0.42550425  0.06255919  0.13524394    -0.52300
O892        O  0.52171520  0.07151080  0.11348582    -0.97000
O893        O  0.55707038  0.06777814  0.05518713    -0.54200
O894        O  0.54160735  0.13915019  0.08427480    -0.73600
C895        C  0.53871582  0.17815139  0.08481830     0.98800
O896        O  0.40137808  0.24256148  0.07926365    -0.62400
O897        O  0.39722387  0.13267039  0.99738089    -0.57200
O898        O  0.46442402  0.22519453  0.04934743    -0.93900
O899        O  0.48355279  0.18463968  0.02250266    -0.92300
O900        O  0.31840385  0.15384757  0.01938327    -0.92700
O901        O  0.29634833  0.17870218  0.05751127    -0.91400
C902        C  0.48479907  0.21859491  0.03263140     1.17600
H903        H  0.37665422  0.07107010  0.01811050     0.33600
H904        H  0.35515346  0.16129547  0.08959336     0.44400
H905        H  0.50795459  0.14960274  0.05138362     0.37900
H906        H  0.44453150  0.01913665  0.09423499     0.34400
H907        H  0.27061782  0.07747626  0.06946681     0.26200
H908        H  0.40340600  0.05734459  0.14534157     0.32100
H909        H  0.55167621  0.06773422  0.11247702     0.38100
H910        H  0.31464370  0.13206133  0.00889755     0.32500
H911        H  0.40739832  0.15766184  0.99053147     0.31400
H912        H  0.51128825  0.12820355  0.99598551     0.33100
H913        H  0.58129762  0.07426205  0.06384396     0.32000
H914        H  0.31604011  0.20155251  0.05824858     0.36000
H915        H  0.38269843  0.24461467  0.06718376     0.28800
H916        H  0.38282456  0.93791608  0.05115902     0.33000
H917        H  0.51305049  0.99642967  0.07052248     0.35900
H918        H  0.40165991  0.11083420  0.98699137     0.28500
H919        H  0.38302538  0.23825401  0.09129743     0.41300
H920        H  0.32879879  0.09453602  0.13423573     0.31400
H921        H  0.28246571  0.11219393  0.08501062     0.39000
H922        H  0.55610394  0.08976798  0.04474726     0.30900
H923        H  0.43667071  0.03527430  0.13177192     0.30900
H924        H  0.42834109  0.94008281  0.05873573     0.31200
Zr925      Zr  0.27163967  0.38657628  0.19646605     2.17500
O926        O  0.19731889  0.38537332  0.19933435    -0.51200
O927        O  0.26362675  0.43887349  0.22430844    -0.74400
O928        O  0.25081539  0.33325326  0.22248114    -0.81200
O929        O  0.26647034  0.40222357  0.13613562    -0.82900
O930        O  0.30876900  0.30822498  0.23754585    -0.78500
O931        O  0.23063932  0.41427744  0.16557587    -0.90200
O932        O  0.32043226  0.47872393  0.22590088    -0.76100
O933        O  0.32997609  0.39828519  0.21835427    -0.85600
O934        O  0.31209815  0.43867666  0.18047070    -0.85300
O935        O  0.30965367  0.32316251  0.19794537    -0.72100
O936        O  0.29261144  0.36038687  0.16306591    -0.84200
Zr937      Zr  0.42745917  0.36128392  0.17261112     2.26400
Zr938      Zr  0.36808660  0.33577251  0.22040384     2.06300
Zr939      Zr  0.33529879  0.41184380  0.14772800     2.10000
Zr940      Zr  0.37007917  0.45020016  0.20228101     1.78800
O941        O  0.31692372  0.43305012  0.11256302    -0.93000
O942        O  0.40858641  0.46098111  0.23429462    -0.40800
O943        O  0.39323787  0.42546184  0.16914776    -0.77400
O944        O  0.40920900  0.38851557  0.20576908    -0.96100
O945        O  0.38706086  0.30936293  0.18773898    -0.89400
O946        O  0.37042274  0.34848659  0.15025332    -0.92300
C947        C  0.28478324  0.46841561  0.23217568     1.01500
C948        C  0.23438474  0.41480271  0.14528451     1.14400
C949        C  0.26997420  0.30879511  0.23509644     1.05200
O950        O  0.39575575  0.37574163  0.24901250    -0.94400
O951        O  0.42660009  0.28898761  0.21454806    -0.90200
O952        O  0.47280893  0.32430921  0.19574066    -0.83300
C953        C  0.46265065  0.29333084  0.20665086     1.11800
O954        O  0.26451420  0.26587993  0.15905173    -0.96400
Zr955      Zr  0.33030672  0.29812280  0.16561945     1.88900
O956        O  0.44911539  0.29791723  0.15787406    -0.73100
O957        O  0.38449032  0.29013158  0.24918682    -0.52300
O958        O  0.32094531  0.23362771  0.18366428    -0.97000
O959        O  0.31865425  0.28096208  0.12918549    -0.54200
O960        O  0.39116658  0.25974060  0.15824513    -0.73600
C961        C  0.42972162  0.26456524  0.15547945     0.98800
O962        O  0.49191536  0.39842651  0.17243988    -0.62400
O963        O  0.33994423  0.48586876  0.14861484    -0.57200
O964        O  0.44324920  0.37369266  0.13693313    -0.93900
O965        O  0.38698417  0.40037993  0.12118611    -0.92300
O966        O  0.35532454  0.51894626  0.19028036    -0.92700
O967        O  0.43000853  0.49259612  0.19599209    -0.91400
C968        C  0.42324440  0.38561050  0.12094365     1.17600
H969        H  0.29594687  0.46314644  0.17883415     0.33600
H970        H  0.43346561  0.39307899  0.21391833     0.44400
H971        H  0.37754012  0.33604698  0.13724532     0.37900
H972        H  0.29411274  0.29905167  0.20105244     0.34400
H973        H  0.41353949  0.49064671  0.23489455     0.26200
H974        H  0.36875118  0.29977037  0.26138785     0.32100
H975        H  0.34199713  0.23374625  0.19473012     0.38100
H976        H  0.35901122  0.53646364  0.20268511     0.32500
H977        H  0.36338509  0.49272772  0.13946866     0.31400
H978        H  0.33453049  0.45665725  0.10921729     0.33100
H979        H  0.34568958  0.27254419  0.12371439     0.32000
H980        H  0.45212399  0.47313854  0.19259862     0.36000
H981        H  0.48547091  0.42451153  0.16550819     0.28800
H982        H  0.19156215  0.39209704  0.21403684     0.33000
H983        H  0.24448902  0.28320642  0.16647344     0.35900
H984        H  0.31552081  0.49566089  0.14107414     0.28500
H985        H  0.49657260  0.40589643  0.18717307     0.41300
H986        H  0.37163627  0.38257979  0.25766490     0.31400
H987        H  0.38870219  0.45596369  0.24561716     0.39000
H988        H  0.31288649  0.30724720  0.12229807     0.30900
H989        H  0.37223844  0.26352943  0.24548981     0.30900
H990        H  0.18956589  0.35635204  0.19787385     0.31200
Zr991      Zr  0.16181225  0.51096263  0.04613853     2.17500
O992        O  0.15956220  0.43773874  0.04026583    -0.51200
O993        O  0.21995252  0.50774355  0.02127801    -0.74400
O994        O  0.11429843  0.49430343  0.01663032    -0.81200
O995        O  0.16572615  0.49458552  0.10570046    -0.82900
O996        O  0.09185888  0.55401154  0.00266787    -0.78500
O997        O  0.18884771  0.46671534  0.07597943    -0.90200
O998        O  0.25163306  0.56939251  0.02141485    -0.76100
O999        O  0.17319811  0.57367719  0.02781083    -0.85600
O1000       O  0.21013414  0.55011312  0.06584061    -0.85300
O1001       O  0.09653653  0.54651857  0.04383114    -0.72100
O1002       O  0.12995794  0.52365776  0.07927015    -0.84200
Zr1003     Zr  0.12407777  0.65896115  0.07629661     2.26400
Zr1004     Zr  0.10936332  0.60944463  0.02515067     2.06300
Zr1005     Zr  0.17726852  0.56500526  0.09845788     2.10000
Zr1006     Zr  0.22097473  0.61235944  0.04759752     1.78800
O1007       O  0.18864599  0.54280590  0.13421359    -0.93000
O1008       O  0.24113757  0.65543348  0.01847627    -0.40800
O1009       O  0.18975472  0.62731352  0.08045763    -0.77400
O1010       O  0.15788409  0.64936020  0.04373437    -0.96100
O1011       O  0.07633340  0.61949596  0.05739538    -0.89400
O1012       O  0.11241337  0.59787365  0.09553410    -0.92300
C1013       C  0.24668979  0.53330243  0.01431926     1.01500
C1014       C  0.18458416  0.46635363  0.09622958     1.14400
C1015       C  0.09236192  0.51525581  0.00357913     1.05200
O1016       O  0.15167822  0.64489505  0.99978996    -0.94400
O1017       O  0.05797875  0.66344593  0.03157612    -0.90200
O1018       O  0.08746547  0.70668464  0.05433918    -0.83300
C1019       C  0.05924006  0.69771540  0.04132525     1.11800
O1020       O  0.03882830  0.48943588  0.07702601    -0.96400
Zr1021     Zr  0.06605872  0.55836234  0.07627344     1.88900
O1022       O  0.05810503  0.67136371  0.09176294    -0.73100
O1023       O  0.06519755  0.63020722  0.99640011    -0.52300
O1024       O  0.00312418  0.54860148  0.05657366    -0.97000
O1025       O  0.04758062  0.53656216  0.11126274    -0.54200
O1026       O  0.02232914  0.61269625  0.08740115    -0.73600
C1027       C  0.02558739  0.64989328  0.09306553     0.98800
O1028       O  0.15226945  0.72729337  0.07986759    -0.62400
O1029       O  0.25153543  0.56588257  0.10223519    -0.57200
O1030       O  0.13786453  0.66936181  0.11226334    -0.93900
O1031       O  0.16530916  0.61232478  0.12660491    -0.92300
O1032       O  0.28689443  0.59749432  0.06356227    -0.92700
O1033       O  0.25628765  0.67418785  0.05831374    -0.91400
C1034       C  0.15045582  0.64822353  0.12769433     1.17600
H1035       H  0.23542367  0.53480278  0.06741930     0.33600
H1036       H  0.16255216  0.67538607  0.03706822     0.44400
H1037       H  0.09938576  0.60265906  0.10878282     0.37900
H1038       H  0.07391587  0.53125109  0.03841392     0.34400
H1039       H  0.27146245  0.65406250  0.01818844     0.26200
H1040       H  0.07729625  0.61886448  0.98355505     0.32100
H1041       H  0.99694264  0.57567379  0.05063639     0.38100
H1042       H  0.30632059  0.59581370  0.05178877     0.32500
H1043       H  0.25667637  0.57870088  0.11594999     0.31400
H1044       H  0.21414613  0.52659633  0.13409895     0.33100
H1045       H  0.03754962  0.56136253  0.11844067     0.32000
H1046       H  0.23414087  0.69311488  0.06238957     0.36000
H1047       H  0.17655914  0.72415086  0.08891544     0.28800
H1048       H  0.16953495  0.43391737  0.02587739     0.33000
H1049       H  0.06323828  0.47171902  0.07798377     0.35900
H1050       H  0.25942464  0.53706940  0.10410055     0.28500
H1051       H  0.16374900  0.73371316  0.06600890     0.41300
H1052       H  0.13941504  0.67238560  0.99868050     0.31400
H1053       H  0.23251585  0.64052196  0.00587905     0.39000
H1054       H  0.07392232  0.53030543  0.11806803     0.30900
H1055       H  0.03914694  0.61522287  0.99838245     0.30900
H1056       H  0.13010065  0.43067321  0.03971683     0.31200
Zr1057     Zr  0.27192849  0.88908439  0.79884212     2.17500
O1058       O  0.19878054  0.88441903  0.79200879    -0.51200
O1059       O  0.25746550  0.94120801  0.77197361    -0.74400
O1060       O  0.23228702  0.91762567  0.83024829    -0.81200
O1061       O  0.30916623  0.79819084  0.76351832    -0.82900
O1062       O  0.27207516  0.91863967  0.85915756    -0.78500
O1063       O  0.25331731  0.82357124  0.78041412    -0.90200
O1064       O  0.31166483  0.98448314  0.77023230    -0.76100
O1065       O  0.31301658  0.94249799  0.81295035    -0.85600
O1066       O  0.32725498  0.90013468  0.77422996    -0.85300
O1067       O  0.29606561  0.86302953  0.83174639    -0.72100
O1068       O  0.31479599  0.83092932  0.79575340    -0.84200
Zr1069     Zr  0.43020341  0.86653504  0.81761416     2.26400
Zr1070     Zr  0.33975344  0.91641421  0.84493512     2.06300
Zr1071     Zr  0.36844881  0.83984371  0.77084441     2.10000
Zr1072     Zr  0.36774908  0.95359783  0.78893285     1.78800
O1073       O  0.37263255  0.78936473  0.74306600    -0.93000
O1074       O  0.35973040  0.02288876  0.80184872    -0.40800
O1075       O  0.40933507  0.89338842  0.78464826    -0.77400
O1076       O  0.39478039  0.93013115  0.82154571    -0.96100
O1077       O  0.37637704  0.85421122  0.84173693    -0.89400
O1078       O  0.38959164  0.81379981  0.80319373    -0.92300
C1079       C  0.27596055  0.97279790  0.76464285     1.01500
C1080       C  0.27139575  0.79637764  0.76878214     1.14400
C1081       C  0.23777164  0.92388920  0.85022197     1.05200
O1082       O  0.34715592  0.99003343  0.84340906    -0.94400
O1083       O  0.39171078  0.90009182  0.87033380    -0.90200
O1084       O  0.44842531  0.87872839  0.85308723    -0.83300
C1085       C  0.42898436  0.88847598  0.86963710     1.11800
O1086       O  0.27062389  0.76818775  0.83331154    -0.96400
Zr1087     Zr  0.33576245  0.80222969  0.82739814     1.88900
O1088       O  0.45382717  0.80233190  0.83111359    -0.73100
O1089       O  0.33724513  0.94096018  0.88084586    -0.52300
O1090       O  0.32907926  0.78939080  0.86453084    -0.97000
O1091       O  0.32409879  0.73829908  0.80913171    -0.54200
O1092       O  0.39644649  0.76409648  0.83547171    -0.73600
C1093       C  0.43538213  0.76904131  0.83531141     0.98800
O1094       O  0.49406335  0.90475338  0.81691335    -0.62400
O1095       O  0.37876296  0.88042039  0.73956894    -0.57200
O1096       O  0.47616585  0.83064256  0.79471286    -0.93900
O1097       O  0.43635836  0.80481601  0.76895513    -0.92300
O1098       O  0.39417814  0.96679779  0.75412794    -0.92700
O1099       O  0.43079399  0.99298493  0.79093828    -0.91400
C1100       C  0.47018504  0.80635726  0.77939202     1.17600
H1101       H  0.31766041  0.90650438  0.76042151     0.33600
H1102       H  0.41309770  0.95050348  0.82753086     0.44400
H1103       H  0.40355092  0.78851729  0.80061417     0.37900
H1104       H  0.27378158  0.85546682  0.84076465     0.34400
H1105       H  0.36263976  0.04039594  0.78939404     0.26200
H1106       H  0.31950208  0.96530946  0.88080417     0.32100
H1107       H  0.33077464  0.75942615  0.86586131     0.38100
H1108       H  0.37058482  0.96308458  0.74464525     0.32500
H1109       H  0.40224151  0.86755921  0.73242816     0.31400
H1110       H  0.35800755  0.80109234  0.73102399     0.33100
H1111       H  0.33669094  0.71717614  0.81809829     0.32000
H1112       H  0.45253113  0.97387923  0.78649410     0.36000
H1113       H  0.49966472  0.90928375  0.80196312     0.28800
H1114       H  0.18823197  0.91227228  0.79424779     0.33000
H1115       H  0.25189697  0.78024435  0.82290737     0.35900
H1116       H  0.35490258  0.87447285  0.73056437     0.28500
H1117       H  0.48686919  0.93203369  0.82232459     0.41300
H1118       H  0.31900427  0.00062359  0.84514840     0.31400
H1119       H  0.33050348  0.02522280  0.80564293     0.39000
H1120       H  0.34207383  0.73964203  0.79680367     0.30900
H1121       H  0.32185359  0.92031271  0.88892515     0.30900
H1122       H  0.18761668  0.86838046  0.80375996     0.31200
Zr1123     Zr  0.14879505  0.01170889  0.94929796     2.17500
O1124       O  0.15047569  0.94000170  0.95875640    -0.51200
O1125       O  0.20125507  0.00625890  0.97718916    -0.74400
O1126       O  0.18043897  0.97059535  0.91894069    -0.81200
O1127       O  0.05282212  0.04769622  0.98290998    -0.82900
O1128       O  0.17976446  0.00736168  0.88906434    -0.78500
O1129       O  0.08316931  0.99191253  0.96842217    -0.90200
O1130       O  0.23471169  0.06689458  0.97970685    -0.76100
O1131       O  0.19884052  0.05569720  0.93393781    -0.85600
O1132       O  0.15373782  0.07138232  0.97140871    -0.85300
O1133       O  0.12231764  0.02849930  0.91536367    -0.72100
O1134       O  0.08687123  0.04907230  0.95054928    -0.84200
Zr1135     Zr  0.11050030  0.16397544  0.92385391     2.26400
Zr1136     Zr  0.17144546  0.07565118  0.90093964     2.06300
Zr1137     Zr  0.09022644  0.10742380  0.97278289     2.10000
Zr1138     Zr  0.20378773  0.11462086  0.95567206     1.78800
O1139       O  0.04742985  0.11105516  0.00377835    -0.93000
O1140       O  0.27407261  0.10581211  0.94380183    -0.40800
O1141       O  0.13958142  0.15098140  0.95745665    -0.77400
O1142       O  0.17815452  0.13497304  0.92211537    -0.96100
O1143       O  0.10517199  0.10537145  0.90217736    -0.89400
O1144       O  0.06197119  0.12005678  0.93967067    -0.92300
C1145       C  0.22804111  0.03020857  0.98553310     1.01500
C1146       C  0.05419822  0.00942890  0.97935584     1.14400
C1147       C  0.18676237  0.97451857  0.89883725     1.05200
O1148       O  0.24368635  0.09303248  0.90315150    -0.94400
O1149       O  0.15068358  0.12000000  0.87299484    -0.90200
O1150       O  0.12278031  0.17646747  0.88759290    -0.83300
C1151       C  0.13529505  0.15562221  0.87197617     1.11800
O1152       O  0.03111588  0.99256912  0.91391477    -0.96400
Zr1153     Zr  0.05757676  0.06137237  0.91797896     1.88900
O1154       O  0.04391306  0.17659026  0.90889567    -0.73100
O1155       O  0.20063364  0.06925096  0.86601219    -0.52300
O1156       O  0.04652176  0.04722225  0.88122869    -0.97000
O1157       O  0.99500203  0.04403863  0.93654156    -0.54200
O1158       O  0.01360654  0.11447994  0.90664355    -0.73600
C1159       C  0.01365684  0.15320115  0.90484004     0.98800
O1160       O  0.14008791  0.23187153  0.92123544    -0.62400
O1161       O  0.13364616  0.12837737  0.00170708    -0.57200
O1162       O  0.07037255  0.20986475  0.94539091    -0.93900
O1163       O  0.04647048  0.16924748  0.97119855    -0.92300
O1164       O  0.21355970  0.15246156  0.98786988    -0.92700
O1165       O  0.23997977  0.17895267  0.95162101    -0.91400
C1166       C  0.04568729  0.20234706  0.96041098     1.17600
H1167       H  0.15951763  0.06440045  0.98582216     0.33600
H1168       H  0.19675260  0.15423820  0.91561716     0.44400
H1169       H  0.03492257  0.13106857  0.94139012     0.37900
H1170       H  0.11666062  0.00458845  0.90705194     0.34400
H1171       H  0.29118195  0.11436079  0.95575030     0.26200
H1172       H  0.22548563  0.05245436  0.86734850     0.32100
H1173       H  0.01640160  0.04737615  0.87950854     0.38100
H1174       H  0.24214022  0.14676002  0.99203432     0.32500
H1175       H  0.12168448  0.15430969  0.00663233     0.31400
H1176       H  0.01930291  0.11521075  0.99860533     0.33100
H1177       H  0.97271220  0.05592756  0.92813920     0.32000
H1178       H  0.21861907  0.19859367  0.94734479     0.36000
H1179       H  0.14637433  0.23975567  0.93576895     0.28800
H1180       H  0.17866299  0.93096475  0.95553985     0.33000
H1181       H  0.04977032  0.97540166  0.92229133     0.35900
H1182       H  0.12794503  0.10867202  0.01297622     0.28500
H1183       H  0.16718285  0.22768773  0.91474428     0.41300
H1184       H  0.25803962  0.06655132  0.90299725     0.31400
H1185       H  0.27810393  0.07601986  0.94298357     0.39000
H1186       H  0.99576691  0.06090661  0.94933340     0.30900
H1187       H  0.18127204  0.05241018  0.85772613     0.30900
H1188       H  0.13313220  0.92632490  0.94822956     0.31200
Zr1189     Zr  0.74869326  0.62839653  0.79888707     2.17500
O1190       O  0.81782429  0.62756058  0.78442873    -0.51200
O1191       O  0.74558931  0.56732811  0.77695857    -0.74400
O1192       O  0.79573439  0.59590620  0.82680026    -0.81200
O1193       O  0.70207359  0.70789229  0.75959957    -0.82900
O1194       O  0.77231516  0.60652608  0.85964383    -0.78500
O1195       O  0.76214528  0.68352181  0.77291071    -0.90200
O1196       O  0.68762843  0.53359505  0.78624033    -0.76100
O1197       O  0.71196432  0.59063363  0.82431343    -0.85600
O1198       O  0.68200199  0.61626121  0.78344826    -0.85300
O1199       O  0.74756962  0.67045844  0.82936025    -0.72100
O1200       O  0.70868167  0.68605672  0.79544849    -0.84200
Zr1201     Zr  0.61139702  0.68483316  0.83345165     2.26400
Zr1202     Zr  0.70637766  0.63432582  0.85415331     2.06300
Zr1203     Zr  0.64582563  0.67919012  0.77858535     2.10000
Zr1204     Zr  0.64679743  0.57743190  0.80911309     1.78800
O1205       O  0.63127581  0.71318793  0.74558913    -0.93000
O1206       O  0.65935594  0.51660932  0.82979309    -0.40800
O1207       O  0.60975618  0.64034647  0.80381770    -0.77400
O1208       O  0.64039149  0.61902739  0.84002142    -0.96100
O1209       O  0.67691811  0.69893342  0.84756100    -0.89400
O1210       O  0.64673505  0.72265638  0.80771950    -0.92300
C1211       C  0.72056999  0.53726123  0.77546079     1.01500
C1212       C  0.74114851  0.70781986  0.76100420     1.14400
C1213       C  0.79868748  0.59225043  0.84712470     1.05200
O1214       O  0.69663277  0.57022421  0.87246118    -0.94400
O1215       O  0.66592339  0.65303154  0.88387854    -0.90200
O1216       O  0.61160355  0.68761826  0.87087091    -0.83300
C1217       C  0.63332727  0.67401242  0.88595192     1.11800
O1218       O  0.78307862  0.75565226  0.81302005    -0.96400
Zr1219     Zr  0.71397097  0.73338499  0.82134970     1.88900
O1220       O  0.60648385  0.75671114  0.84105386    -0.73100
O1221       O  0.74230163  0.67060181  0.88179709    -0.52300
O1222       O  0.74523533  0.76059107  0.85316487    -0.97000
O1223       O  0.72123692  0.78568280  0.79487155    -0.54200
O1224       O  0.66766040  0.78505777  0.83257250    -0.73600
C1225       C  0.63080718  0.78701991  0.83912324     0.98800
O1226       O  0.54398186  0.66355496  0.84540842    -0.62400
O1227       O  0.61402427  0.62803494  0.75605331    -0.57200
O1228       O  0.55718151  0.71394910  0.81332450    -0.93900
O1229       O  0.58159864  0.72165617  0.78056306    -0.92300
O1230       O  0.59861946  0.55777062  0.78198898    -0.92700
O1231       O  0.58519754  0.54401765  0.82181598    -0.91400
C1232       C  0.55478309  0.72859385  0.79495878     1.17600
H1233       H  0.68298594  0.60352526  0.76985971     0.33600
H1234       H  0.62384032  0.60496208  0.85030033     0.44400
H1235       H  0.63402899  0.74819058  0.80394194     0.37900
H1236       H  0.77475875  0.67542195  0.83456549     0.34400
H1237       H  0.65160493  0.49359145  0.82058915     0.26200
H1238       H  0.75247200  0.64945249  0.89142079     0.32100
H1239       H  0.72341171  0.75988149  0.86385295     0.38100
H1240       H  0.61568979  0.54982594  0.76996496     0.32500
H1241       H  0.58646111  0.63885311  0.75288821     0.31400
H1242       H  0.63097499  0.74273084  0.74890270     0.33100
H1243       H  0.72072238  0.81182979  0.80251727     0.32000
H1244       H  0.56773744  0.56648804  0.82694147     0.36000
H1245       H  0.54868172  0.63709800  0.85220225     0.28800
H1246       H  0.82513354  0.59838485  0.78321445     0.33000
H1247       H  0.79252248  0.73617963  0.80231597     0.35900
H1248       H  0.62904909  0.62980008  0.74270774     0.28500
H1249       H  0.53686856  0.68237267  0.85692163     0.41300
H1250       H  0.67141212  0.55829272  0.86652775     0.31400
H1251       H  0.68940686  0.51462538  0.83092007     0.39000
H1252       H  0.69499738  0.78504188  0.78719503     0.30900
H1253       H  0.76717074  0.68205427  0.87519549     0.30900
H1254       H  0.83553616  0.63801673  0.79570805     0.31200
Zr1255     Zr  0.90458086  0.49998168  0.94062463     2.17500
O1256       O  0.91235470  0.57267463  0.94754352    -0.51200
O1257       O  0.84722935  0.51234808  0.96469807    -0.74400
O1258       O  0.87245147  0.53965727  0.91011727    -0.81200
O1259       O  0.98581484  0.45933663  0.98067237    -0.82900
O1260       O  0.86537218  0.50122630  0.88088323    -0.78500
O1261       O  0.96636137  0.51583062  0.96250518    -0.90200
O1262       O  0.80387114  0.45874562  0.96094888    -0.76100
O1263       O  0.85820069  0.46013143  0.92050040    -0.85600
O1264       O  0.88680005  0.44300732  0.96270787    -0.85300
O1265       O  0.94090891  0.48169750  0.90951770    -0.72100
O1266       O  0.95828695  0.45529300  0.94588688    -0.84200
Zr1267     Zr  0.93750965  0.34540748  0.91937091     2.26400
Zr1268     Zr  0.89580748  0.43785017  0.89043544     2.06300
Zr1269     Zr  0.94618008  0.40221419  0.96906924     2.10000
Zr1270     Zr  0.83976525  0.40439169  0.94224474     1.78800
O1271       O  0.98054787  0.39481151  0.00269853    -0.93000
O1272       O  0.77859552  0.41383220  0.92118049    -0.40800
O1273       O  0.89871631  0.36229555  0.94982859    -0.77400
O1274       O  0.87511715  0.38116362  0.91145259    -0.96100
O1275       O  0.95662308  0.40193253  0.89841029    -0.89400
O1276       O  0.98396708  0.38545409  0.93910949    -0.92300
C1277       C  0.81390792  0.49321256  0.96899427     1.01500
C1278       C  0.99032488  0.49658872  0.97539342     1.14400
C1279       C  0.86091050  0.53458026  0.89071960     1.05200
O1280       O  0.83381929  0.41697259  0.87237556    -0.94400
O1281       O  0.91863091  0.38919006  0.86487633    -0.90200
O1282       O  0.93923659  0.33296280  0.88255570    -0.83300
C1283       C  0.93312729  0.35312262  0.86576810     1.11800
O1284       O  0.03318536  0.50954342  0.91782410    -0.96400
Zr1285     Zr  0.00079085  0.44288471  0.91820200     1.88900
O1286       O  0.00649973  0.32530880  0.91094767    -0.73100
O1287       O  0.92903787  0.46864946  0.86027524    -0.52300
O1288       O  0.02332823  0.45624260  0.88249499    -0.97000
O1289       O  0.06088985  0.45316183  0.93990312    -0.54200
O1290       O  0.04278483  0.38439870  0.91027856    -0.73600
C1291       C  0.03970726  0.34551713  0.90891183     0.98800
O1292       O  0.90034897  0.28228743  0.91310755    -0.62400
O1293       O  0.89350246  0.38360033  0.99454111    -0.57200
O1294       O  0.96499234  0.29653288  0.94408029    -0.93900
O1295       O  0.98394004  0.33630901  0.97127108    -0.92300
O1296       O  0.81543808  0.37206157  0.97404138    -0.92700
O1297       O  0.79921896  0.34285636  0.93788451    -0.91400
C1298       C  0.98530938  0.30267052  0.96087244     1.17600
H1299       H  0.87646365  0.45039090  0.97632029     0.33600
H1300       H  0.85720450  0.36341543  0.90341436     0.44400
H1301       H  0.00896446  0.37221960  0.94308698     0.37900
H1302       H  0.94814311  0.50553064  0.90157779     0.34400
H1303       H  0.77606063  0.44359272  0.91941485     0.26200
H1304       H  0.90729824  0.47158168  0.84966524     0.32100
H1305       H  0.02119304  0.42967580  0.87531824     0.38100
H1306       H  0.80232288  0.39390390  0.98228002     0.32500
H1307       H  0.90332629  0.35809707  0.00102142     0.31400
H1308       H  0.96663030  0.41370912  0.01233138     0.33100
H1309       H  0.08427341  0.44292663  0.93154747     0.32000
H1310       H  0.81880579  0.32242474  0.93250550     0.36000
H1311       H  0.92103698  0.26337147  0.90736931     0.28800
H1312       H  0.88487384  0.58454327  0.94532982     0.33000
H1313       H  0.01357519  0.52735702  0.92520803     0.35900
H1314       H  0.89521785  0.40420647  0.00574986     0.28500
H1315       H  0.89408574  0.27142677  0.92710140     0.41300
H1316       H  0.83732148  0.42735966  0.85803996     0.31400
H1317       H  0.78621237  0.40362679  0.90719587     0.39000
H1318       H  0.05780669  0.43311615  0.95121576     0.30900
H1319       H  0.93625422  0.49683515  0.86430246     0.30900
H1320       H  0.92896574  0.58301965  0.93578776     0.31200
Zr1321     Zr  0.76927265  0.14121466  0.80222170     2.17500
O1322       O  0.69541680  0.15118466  0.80093800    -0.51200
O1323       O  0.75773294  0.08652020  0.77606801    -0.74400
O1324       O  0.75003188  0.19091255  0.77436157    -0.81200
O1325       O  0.76262058  0.12938017  0.86194862    -0.82900
O1326       O  0.80877687  0.21314653  0.75889359    -0.78500
O1327       O  0.72974871  0.11060163  0.83270119    -0.90200
O1328       O  0.81249379  0.04389950  0.77533460    -0.76100
O1329       O  0.82645647  0.12468272  0.78043158    -0.85600
O1330       O  0.80758953  0.08978899  0.81976012    -0.85300
O1331       O  0.81045368  0.20245036  0.79871121    -0.72100
O1332       O  0.79150666  0.17134200  0.83464468    -0.84200
Zr1333     Zr  0.92656123  0.16301451  0.82450728     2.26400
Zr1334     Zr  0.86760557  0.18491931  0.77626732     2.06300
Zr1335     Zr  0.83218039  0.12000692  0.85135985     2.10000
Zr1336     Zr  0.86400911  0.07290581  0.79804864     1.78800
O1337       O  0.81587214  0.10793810  0.88786078    -0.93000
O1338       O  0.90247176  0.05318966  0.76720062    -0.40800
O1339       O  0.88891181  0.10122552  0.83008911    -0.77400
O1340       O  0.90649609  0.13211349  0.79236528    -0.96100
O1341       O  0.88825074  0.21474646  0.80791857    -0.89400
O1342       O  0.87074495  0.18098903  0.84670096    -0.92300
C1343       C  0.77707401  0.05507114  0.76901843     1.01500
C1344       C  0.73293716  0.11165814  0.85296487     1.14400
C1345       C  0.76991023  0.21360847  0.76124834     1.05200
O1346       O  0.89055292  0.13779459  0.74947007    -0.94400
O1347       O  0.92870001  0.22991829  0.78001266    -0.90200
O1348       O  0.97356554  0.19757706  0.80099071    -0.83300
C1349       C  0.96441856  0.22662254  0.78852656     1.11800
O1350       O  0.76772790  0.26589340  0.83545682    -0.96400
Zr1351     Zr  0.83262340  0.23117963  0.83003421     1.88900
O1352       O  0.95071816  0.22660107  0.83802921    -0.73100
O1353       O  0.88520390  0.22493590  0.74553289    -0.52300
O1354       O  0.82436360  0.29482792  0.81109368    -0.97000
O1355       O  0.82291179  0.25082136  0.86630642    -0.54200
O1356       O  0.89530405  0.26815349  0.83608130    -0.73600
C1357       C  0.93345108  0.26130745  0.83931193     0.98800
O1358       O  0.99042726  0.12500641  0.82599444    -0.62400
O1359       O  0.83544041  0.04603924  0.85313296    -0.57200
O1360       O  0.94161300  0.15119253  0.86039773    -0.93900
O1361       O  0.88405905  0.13111589  0.87748718    -0.92300
O1362       O  0.84165378  0.00724670  0.81145451    -0.92700
O1363       O  0.91986755  0.02880201  0.80898167    -0.91400
C1364       C  0.92138585  0.14268160  0.87690393     1.17600
H1365       H  0.79063178  0.06615501  0.82226299     0.33600
H1366       H  0.93043323  0.12534172  0.78427774     0.44400
H1367       H  0.87916271  0.19420665  0.85925954     0.37900
H1368       H  0.79560344  0.22646799  0.79478209     0.34400
H1369       H  0.90683697  0.02357249  0.76880444     0.26200
H1370       H  0.86800228  0.21460418  0.73399213     0.32100
H1371       H  0.84300344  0.29232981  0.79903273     0.38100
H1372       H  0.84860157  0.98747326  0.80041875     0.32500
H1373       H  0.85415681  0.04020281  0.86485314     0.31400
H1374       H  0.80702669  0.07925611  0.88882990     0.33100
H1375       H  0.85032429  0.25912952  0.87137231     0.32000
H1376       H  0.94438941  0.04639653  0.80861576     0.36000
H1377       H  0.98364374  0.10001149  0.83385795     0.28800
H1378       H  0.68740751  0.14401165  0.78656128     0.33000
H1379       H  0.74810011  0.25109849  0.82647284     0.35900
H1380       H  0.80810346  0.03736392  0.85808267     0.28500
H1381       H  0.99493324  0.11547243  0.81157348     0.41300
H1382       H  0.86732885  0.13598659  0.73963873     0.31400
H1383       H  0.88279257  0.05545982  0.75556285     0.39000
H1384       H  0.81689525  0.22515746  0.87370791     0.30900
H1385       H  0.87493414  0.25273101  0.74834510     0.30900
H1386       H  0.69132865  0.18099198  0.80190978     0.31200
Zr1387     Zr  0.66183768  0.00930567  0.95167239     2.17500
O1388       O  0.66582856  0.08214383  0.95835369    -0.51200
O1389       O  0.72095255  0.01071181  0.97597736    -0.74400
O1390       O  0.61317793  0.02683571  0.98037361    -0.81200
O1391       O  0.68540338  0.01905925  0.89107988    -0.82900
O1392       O  0.59764426  0.96806420  0.99707591    -0.78500
O1393       O  0.68658317  0.05420761  0.92149293    -0.90200
O1394       O  0.73932377  0.94495686  0.98150358    -0.76100
O1395       O  0.66165118  0.94685888  0.97097094    -0.85600
O1396       O  0.70969303  0.96409344  0.93563268    -0.85300
O1397       O  0.59258572  0.98136806  0.95129275    -0.72100
O1398       O  0.63641257  0.99668510  0.91731226    -0.84200
Zr1399     Zr  0.61619505  0.86359322  0.92088635     2.26400
Zr1400     Zr  0.59415676  0.91768159  0.97035460     2.06300
Zr1401     Zr  0.68325948  0.94956112  0.90163389     2.10000
Zr1402     Zr  0.70936733  0.90228448  0.95520336     1.78800
O1403       O  0.71260779  0.96960237  0.86827099    -0.93000
O1404       O  0.71103876  0.86197858  0.98700259    -0.40800
O1405       O  0.68549840  0.88746768  0.92069934    -0.77400
O1406       O  0.64237484  0.87205228  0.95526247    -0.96100
O1407       O  0.56893001  0.90853735  0.93644566    -0.89400
O1408       O  0.61454361  0.92501840  0.90119094    -0.92300
C1409       C  0.74137872  0.98297099  0.98568066     1.01500
C1410       C  0.69098239  0.05184059  0.90123987     1.14400
C1411       C  0.59340758  0.00618925  0.99435653     1.05200
O1412       O  0.61111559  0.88014763  0.00181036    -0.94400
O1413       O  0.54992029  0.85702083  0.96791299    -0.90200
O1414       O  0.57308972  0.81836021  0.94109640    -0.83300
C1415       C  0.54891772  0.82481032  0.95646457     1.11800
O1416       O  0.54878872  0.04074391  0.91195843    -0.96400
Zr1417     Zr  0.56841678  0.96994127  0.91722825     1.88900
O1418       O  0.55096664  0.85637009  0.90412550    -0.73100
O1419       O  0.52250543  0.92900061  0.97893132    -0.52300
O1420       O  0.50462073  0.98775434  0.93466633    -0.97000
O1421       O  0.55929688  0.98809081  0.88070407    -0.54200
O1422       O  0.52122081  0.91885656  0.90537600    -0.73600
C1423       C  0.52118960  0.88077936  0.90108635     0.98800
O1424       O  0.64106775  0.79424433  0.91652284    -0.62400
O1425       O  0.75560031  0.93249682  0.90469079    -0.57200
O1426       O  0.63207117  0.85212628  0.88512078    -0.93900
O1427       O  0.66865466  0.90544882  0.87250353    -0.92300
O1428       O  0.78115718  0.90946761  0.94572605    -0.92700
O1429       O  0.74418863  0.83811044  0.94850274    -0.91400
C1430       C  0.64906824  0.87208559  0.87036838     1.17600
H1431       H  0.73654997  0.97658500  0.93522636     0.33600
H1432       H  0.64257649  0.84636923  0.96257886     0.44400
H1433       H  0.60318666  0.92152171  0.88748161     0.37900
H1434       H  0.57132449  0.99921967  0.95653990     0.34400
H1435       H  0.74046416  0.85967255  0.99054195     0.26200
H1436       H  0.51958433  0.92049430  0.99357897     0.32100
H1437       H  0.49212373  0.96140267  0.93852980     0.38100
H1438       H  0.79650871  0.90212907  0.95844960     0.32500
H1439       H  0.76035639  0.91083350  0.89424071     0.31400
H1440       H  0.73427156  0.94960149  0.86505666     0.33100
H1441       H  0.54995253  0.96292499  0.87360469     0.32000
H1442       H  0.72221050  0.81738170  0.94887352     0.36000
H1443       H  0.66899502  0.79731814  0.91080473     0.28800
H1444       H  0.67138530  0.08457008  0.97341476     0.33000
H1445       H  0.52186453  0.03992106  0.90495608     0.35900
H1446       H  0.77043742  0.95651087  0.89930496     0.28500
H1447       H  0.64543204  0.78407608  0.93084917     0.41300
H1448       H  0.59009404  0.88845688  0.01202762     0.31400
H1449       H  0.69965488  0.88005731  0.99785458     0.39000
H1450       H  0.58725981  0.99275910  0.87540997     0.30900
H1451       H  0.51870921  0.95885412  0.97889184     0.30900
H1452       H  0.63742281  0.09216548  0.95661905     0.31200
Zr1453     Zr  0.25294218  0.39555632  0.79777360     2.17500
O1454       O  0.32663861  0.39169009  0.79231690    -0.51200
O1455       O  0.25120185  0.45566430  0.77510316    -0.74400
O1456       O  0.27065608  0.35464943  0.76605390    -0.81200
O1457       O  0.26929402  0.42427646  0.85724771    -0.82900
O1458       O  0.21161240  0.32864615  0.75251514    -0.78500
O1459       O  0.29787888  0.42980061  0.82510894    -0.90200
O1460       O  0.19322577  0.49086813  0.78271859    -0.76100
O1461       O  0.18837341  0.40638546  0.78070561    -0.85600
O1462       O  0.21223107  0.43664973  0.82049387    -0.85300
O1463       O  0.22074833  0.32948667  0.79327961    -0.72100
O1464       O  0.24542855  0.35770125  0.82965941    -0.84200
Zr1465     Zr  0.10984789  0.34444444  0.82899296     2.26400
Zr1466     Zr  0.15573864  0.34131793  0.77610663     2.06300
Zr1467     Zr  0.20200777  0.39798221  0.85171999     2.10000
Zr1468     Zr  0.14870211  0.44782756  0.80346101     1.78800
O1469       O  0.23718906  0.38274047  0.88419412    -0.93000
O1470       O  0.10980086  0.47004244  0.77314783    -0.40800
O1471       O  0.13772171  0.41092190  0.83528416    -0.77400
O1472       O  0.11472598  0.38366496  0.79772728    -0.96100
O1473       O  0.15035384  0.30292261  0.80702812    -0.89400
O1474       O  0.17378173  0.33235268  0.84582412    -0.92300
C1475       C  0.22707282  0.48630893  0.77293807     1.01500
C1476       C  0.29806561  0.43577398  0.84524350     1.14400
C1477       C  0.25058462  0.33224526  0.75284488     1.05200
O1478       O  0.12174845  0.38756978  0.75220738    -0.94400
O1479       O  0.09807173  0.29214136  0.77968269    -0.90200
O1480       O  0.05911310  0.31162780  0.80700983    -0.83300
C1481       C  0.06548469  0.28930799  0.79099042     1.11800
O1482       O  0.28485406  0.26977194  0.82001712    -0.96400
Zr1483     Zr  0.21427415  0.29254681  0.82398043     1.88900
O1484       O  0.10208310  0.27484303  0.83935011    -0.73100
O1485       O  0.13688571  0.29621722  0.74747305    -0.52300
O1486       O  0.22278354  0.23430127  0.80091289    -0.97000
O1487       O  0.24198649  0.27195689  0.85760886    -0.54200
O1488       O  0.16363414  0.24390698  0.83466054    -0.73600
C1489       C  0.12576607  0.24398733  0.83983232     0.98800
O1490       O  0.04229798  0.36988297  0.83812110    -0.62400
O1491       O  0.18072616  0.46405812  0.86503440    -0.57200
O1492       O  0.10391108  0.34503924  0.86624745    -0.93900
O1493       O  0.16026970  0.37461237  0.88045347    -0.92300
O1494       O  0.15495437  0.50849823  0.82501852    -0.92700
O1495       O  0.08270018  0.47758147  0.81226286    -0.91400
C1496       C  0.12628912  0.35543912  0.88177130     1.17600
H1497       H  0.22535192  0.46241347  0.82341969     0.33600
H1498       H  0.08782493  0.38779885  0.79169129     0.44400
H1499       H  0.17153718  0.31610725  0.85814531     0.37900
H1500       H  0.23718919  0.30893069  0.78675766     0.34400
H1501       H  0.10841854  0.50007122  0.77439187     0.26200
H1502       H  0.14616517  0.30961684  0.73449273     0.32100
H1503       H  0.19558955  0.23041539  0.79444399     0.38100
H1504       H  0.16140096  0.53077549  0.81520535     0.32500
H1505       H  0.16569939  0.45789820  0.87803863     0.31400
H1506       H  0.23152928  0.40625448  0.89337361     0.33100
H1507       H  0.21906259  0.25868144  0.86500559     0.32000
H1508       H  0.06524654  0.45405492  0.81595327     0.36000
H1509       H  0.04797711  0.39388322  0.84699443     0.28800
H1510       H  0.33125682  0.40259701  0.77819946     0.33000
H1511       H  0.28603168  0.24257863  0.82655642     0.35900
H1512       H  0.20635322  0.47713173  0.86975987     0.28500
H1513       H  0.03144395  0.38158165  0.82509207     0.41300
H1514       H  0.09469302  0.37500801  0.74967168     0.31400
H1515       H  0.12816859  0.46540499  0.76116262     0.39000
H1516       H  0.24657702  0.29776103  0.86524131     0.30900
H1517       H  0.15444954  0.27194577  0.74899944     0.30900
H1518       H  0.33291440  0.36224082  0.79124210     0.31200
Zr1519     Zr  0.39400915  0.53646905  0.93814654     2.17500
O1520       O  0.40178097  0.46297863  0.94107968    -0.51200
O1521       O  0.33185003  0.53218239  0.96016683    -0.74400
O1522       O  0.43324577  0.51823852  0.97059424    -0.81200
O1523       O  0.37063838  0.52572197  0.87709926    -0.82900
O1524       O  0.45619572  0.57679647  0.98576177    -0.78500
O1525       O  0.36388808  0.49432792  0.90852775    -0.90200
O1526       O  0.29742593  0.59131034  0.95485341    -0.76100
O1527       O  0.37634731  0.59794446  0.95615080    -0.85600
O1528       O  0.35435473  0.57679099  0.91461706    -0.85300
O1529       O  0.45731560  0.57232155  0.94536049    -0.72100
O1530       O  0.43653152  0.54998275  0.90806383    -0.84200
Zr1531     Zr  0.44041848  0.68514477  0.91263393     2.26400
Zr1532     Zr  0.43842888  0.63370957  0.96412216     2.06300
Zr1533     Zr  0.39702353  0.59214795  0.88515081     2.10000
Zr1534     Zr  0.33595114  0.63694589  0.93270306     1.78800
O1535       O  0.42957334  0.55869958  0.85566213    -0.93000
O1536       O  0.30770978  0.67804887  0.96086186    -0.40800
O1537       O  0.37720894  0.65308377  0.90293715    -0.77400
O1538       O  0.39660310  0.67427412  0.94189216    -0.96100
O1539       O  0.48119667  0.64522062  0.93509134    -0.89400
O1540       O  0.45960378  0.62512594  0.89404052    -0.92300
C1541       C  0.30152045  0.55646187  0.96353506     1.01500
C1542       C  0.35898172  0.49583418  0.88832011     1.14400
C1543       C  0.45428950  0.53804164  0.98455245     1.05200
O1544       O  0.38642215  0.66449044  0.98620246    -0.94400
O1545       O  0.48836961  0.69024363  0.96248460    -0.90200
O1546       O  0.46336914  0.73369259  0.93856277    -0.83300
C1547       C  0.48821469  0.72505049  0.95328478     1.11800
O1548       O  0.52420175  0.51571267  0.91503439    -0.96400
Zr1549     Zr  0.49879974  0.58523574  0.91649889     1.88900
O1550       O  0.51206726  0.70032688  0.90887452    -0.73100
O1551       O  0.46839341  0.65358427  0.99744220    -0.52300
O1552       O  0.55331210  0.56881687  0.94094437    -0.97000
O1553       O  0.53103724  0.56953827  0.88324682    -0.54200
O1554       O  0.54650658  0.64148630  0.91490999    -0.73600
C1555       C  0.54494865  0.67997480  0.91155317     0.98800
O1556       O  0.41399053  0.75194748  0.90311564    -0.62400
O1557       O  0.33357958  0.60708481  0.86679008    -0.57200
O1558       O  0.44406061  0.69561824  0.87590900    -0.93900
O1559       O  0.41668963  0.64141201  0.85881522    -0.92300
O1560       O  0.27690527  0.61996748  0.91123774    -0.92700
O1561       O  0.30106582  0.69778533  0.92036089    -0.91400
C1562       C  0.43420247  0.67631846  0.85933179     1.17600
H1563       H  0.32985780  0.56266642  0.91041348     0.33600
H1564       H  0.38955776  0.69998210  0.94834629     0.44400
H1565       H  0.47688197  0.63058129  0.88237622     0.37900
H1566       H  0.47831745  0.55622134  0.95172730     0.34400
H1567       H  0.27781157  0.67838925  0.95835111     0.26200
H1568       H  0.45273651  0.63917245  0.00836181     0.32100
H1569       H  0.54831711  0.58669798  0.95306111     0.38100
H1570       H  0.25315888  0.62230824  0.92070514     0.32500
H1571       H  0.34012329  0.60246424  0.85191834     0.31400
H1572       H  0.41108906  0.56384104  0.84374646     0.33100
H1573       H  0.54903668  0.59304841  0.88037303     0.32000
H1574       H  0.32335245  0.71698953  0.91694435     0.36000
H1575       H  0.39103680  0.74632060  0.89348627     0.28800
H1576       H  0.39058796  0.45598351  0.95491299     0.33000
H1577       H  0.50653348  0.50047102  0.92479659     0.35900
H1578       H  0.31486262  0.58458399  0.87045470     0.28500
H1579       H  0.40058212  0.76228070  0.91586325     0.41300
H1580       H  0.39491317  0.69331615  0.98765402     0.31400
H1581       H  0.31082698  0.66126115  0.97351752     0.39000
H1582       H  0.50917731  0.57093486  0.87262995     0.30900
H1583       H  0.49602989  0.64123652  0.99774227     0.30900
H1584       H  0.43164767  0.45838657  0.94229565     0.31200
Zr1585     Zr  0.15762249  0.50800609  0.45057333     2.17500
O1586       O  0.15973822  0.58067321  0.45802790    -0.51200
O1587       O  0.21826533  0.50906292  0.47309101    -0.74400
O1588       O  0.11164305  0.52406885  0.48066239    -0.81200
O1589       O  0.18605209  0.51928298  0.39064677    -0.82900
O1590       O  0.09685135  0.46445852  0.49660170    -0.78500
O1591       O  0.18287729  0.55428532  0.42107476    -0.90200
O1592       O  0.23372671  0.44281111  0.47944358    -0.76100
O1593       O  0.15596936  0.44463007  0.46936027    -0.85600
O1594       O  0.20463984  0.46239759  0.43400090    -0.85300
O1595       O  0.08778014  0.48190354  0.45079474    -0.72100
O1596       O  0.13213478  0.49780315  0.41608909    -0.84200
Zr1597     Zr  0.10794048  0.36549172  0.41846605     2.26400
Zr1598     Zr  0.08759089  0.41698363  0.46884125     2.06300
Zr1599     Zr  0.17745378  0.44992363  0.39997231     2.10000
Zr1600     Zr  0.20280603  0.40000512  0.45301609     1.78800
O1601       O  0.19782043  0.46935884  0.36484872    -0.93000
O1602       O  0.20670913  0.35727021  0.48388550    -0.40800
O1603       O  0.17793332  0.38730691  0.41846861    -0.77400
O1604       O  0.13492645  0.37157781  0.45290034    -0.96100
O1605       O  0.06202030  0.41081534  0.43488632    -0.89400
O1606       O  0.10795705  0.42809517  0.39956552    -0.92300
C1607       C  0.23745356  0.48104819  0.48304168     1.01500
C1608       C  0.18974702  0.55203294  0.40099902     1.14400
C1609       C  0.09254999  0.50272036  0.49460969     1.05200
O1610       O  0.09410165  0.38020728  0.50151952    -0.94400
O1611       O  0.04628833  0.35371020  0.46683942    -0.90200
O1612       O  0.06548757  0.31828511  0.43808626    -0.83300
C1613       C  0.04389761  0.32253702  0.45462623     1.11800
O1614       O  0.05070325  0.54637868  0.41460685    -0.96400
Zr1615     Zr  0.06347896  0.47353509  0.41663247     1.88900
O1616       O  0.04127981  0.36139342  0.40297005    -0.73100
O1617       O  0.01619683  0.43488759  0.47477511    -0.52300
O1618       O  0.99989904  0.49271752  0.43380746    -0.97000
O1619       O  0.05028107  0.49674371  0.38127108    -0.54200
O1620       O  0.01451231  0.42518652  0.40425669    -0.73600
C1621       C  0.01255316  0.38714495  0.40018224     0.98800
O1622       O  0.13297903  0.29661386  0.41267740    -0.62400
O1623       O  0.24987195  0.43235281  0.40110205    -0.57200
O1624       O  0.12204862  0.35564369  0.38225465    -0.93900
O1625       O  0.16395451  0.40597302  0.37080340    -0.92300
O1626       O  0.27386380  0.40240007  0.44159086    -0.92700
O1627       O  0.23326219  0.33383059  0.44597185    -0.91400
C1628       C  0.14206152  0.37431361  0.36802570     1.17600
H1629       H  0.23182748  0.47417038  0.43356197     0.33600
H1630       H  0.13472262  0.34524533  0.45991364     0.44400
H1631       H  0.09699020  0.42581827  0.38589375     0.37900
H1632       H  0.06768493  0.50015570  0.45646435     0.34400
H1633       H  0.23523725  0.36026034  0.48889089     0.26200
H1634       H  0.00926196  0.42293106  0.48842202     0.32100
H1635       H  0.98655980  0.46663633  0.43744698     0.38100
H1636       H  0.28670646  0.42443451  0.44980540     0.32500
H1637       H  0.25369229  0.41232241  0.38975290     0.31400
H1638       H  0.22594337  0.45894393  0.36289355     0.33100
H1639       H  0.04177426  0.47218445  0.37342247     0.32000
H1640       H  0.20962531  0.31558369  0.44350742     0.36000
H1641       H  0.16148441  0.30023491  0.40780239     0.28800
H1642       H  0.17046486  0.58275366  0.47237614     0.33000
H1643       H  0.07156370  0.55870572  0.42381746     0.35900
H1644       H  0.26431886  0.45709548  0.39630300     0.28500
H1645       H  0.13589496  0.28477331  0.42674845     0.41300
H1646       H  0.06995539  0.38853886  0.50973957     0.31400
H1647       H  0.18995980  0.37159957  0.49439373     0.39000
H1648       H  0.07759802  0.50358702  0.37566221     0.30900
H1649       H  0.01574265  0.46467866  0.47697880     0.30900
H1650       H  0.13074608  0.58920857  0.45906560     0.31200
Zr1651     Zr  0.27470575  0.64046273  0.30331246     2.17500
O1652       O  0.20108631  0.65218187  0.30340409    -0.51200
O1653       O  0.26434699  0.58503079  0.27761166    -0.74400
O1654       O  0.25417938  0.68656426  0.27425779    -0.81200
O1655       O  0.26681707  0.62562406  0.36348667    -0.82900
O1656       O  0.31255617  0.70698477  0.25778083    -0.78500
O1657       O  0.23444862  0.60986106  0.33342731    -0.90200
O1658       O  0.31862823  0.54190151  0.27888907    -0.76100
O1659       O  0.33220338  0.62305922  0.28185351    -0.85600
O1660       O  0.31370470  0.59134897  0.32223701    -0.85300
O1661       O  0.31459472  0.70211000  0.29804448    -0.72100
O1662       O  0.29604960  0.67445745  0.33488386    -0.84200
Zr1663     Zr  0.43015072  0.66746102  0.32570835     2.26400
Zr1664     Zr  0.37234722  0.68355062  0.27631771     2.06300
Zr1665     Zr  0.33717720  0.62550934  0.35307248     2.10000
Zr1666     Zr  0.37036742  0.57369876  0.30074788     1.78800
O1667       O  0.31720340  0.62095210  0.38953707    -0.93000
O1668       O  0.40517255  0.55338803  0.26887685    -0.40800
O1669       O  0.39420703  0.60517563  0.33238028    -0.77400
O1670       O  0.41155613  0.63321914  0.29415689    -0.96100
O1671       O  0.39155712  0.71660990  0.30728968    -0.89400
O1672       O  0.37333320  0.68730200  0.34684202    -0.92300
C1673       C  0.28393221  0.55302339  0.27152423     1.01500
C1674       C  0.23682155  0.61000780  0.35372746     1.14400
C1675       C  0.27374876  0.70778345  0.26042167     1.05200
O1676       O  0.40043242  0.63883671  0.24970072    -0.94400
O1677       O  0.43251694  0.72960762  0.28015434    -0.90200
O1678       O  0.47746615  0.69711963  0.30093419    -0.83300
C1679       C  0.46833269  0.72616322  0.28851871     1.11800
O1680       O  0.26740553  0.76531698  0.33119742    -0.96400
Zr1681     Zr  0.33531788  0.73511574  0.32843844     1.88900
O1682       O  0.45385320  0.73388019  0.33527017    -0.73100
O1683       O  0.38845361  0.72448574  0.24568297    -0.52300
O1684       O  0.32706174  0.79576118  0.30705570    -0.97000
O1685       O  0.32671148  0.76301388  0.36336954    -0.54200
O1686       O  0.39763545  0.77425094  0.33261378    -0.73600
C1687       C  0.43616299  0.76847959  0.33539232     0.98800
O1688       O  0.49346510  0.62924927  0.32961571    -0.62400
O1689       O  0.34895827  0.55300625  0.35802513    -0.57200
O1690       O  0.44438150  0.66469321  0.36228104    -0.93900
O1691       O  0.38759813  0.64249509  0.37929933    -0.92300
O1692       O  0.35529033  0.50916341  0.31776100    -0.92700
O1693       O  0.43128050  0.53346534  0.30793312    -0.91400
C1694       C  0.42393552  0.65699363  0.37884249     1.17600
H1695       H  0.29749980  0.56729953  0.32547766     0.33600
H1696       H  0.43586097  0.62611471  0.28638271     0.44400
H1697       H  0.38060692  0.70274307  0.35907944     0.37900
H1698       H  0.29918392  0.72541033  0.29328338     0.34400
H1699       H  0.40538257  0.52330284  0.26935012     0.26200
H1700       H  0.37230053  0.71328382  0.23398628     0.32100
H1701       H  0.34062146  0.78905192  0.29377492     0.38100
H1702       H  0.34675888  0.49058648  0.30648514     0.32500
H1703       H  0.36589914  0.55120959  0.37074262     0.31400
H1704       H  0.31723505  0.59159890  0.39291683     0.33100
H1705       H  0.35418205  0.77250686  0.36760038     0.32000
H1706       H  0.45348850  0.55373035  0.30935439     0.36000
H1707       H  0.48592344  0.60555743  0.33831970     0.28800
H1708       H  0.19165902  0.64429146  0.28936936     0.33000
H1709       H  0.27149825  0.79217759  0.33786436     0.35900
H1710       H  0.32200813  0.54187872  0.36214577     0.28500
H1711       H  0.49865913  0.61757315  0.31567720     0.41300
H1712       H  0.37721022  0.63342609  0.24022173     0.31400
H1713       H  0.38577883  0.55993819  0.25755016     0.39000
H1714       H  0.32107597  0.73922927  0.37238917     0.30900
H1715       H  0.37659323  0.75169973  0.24843779     0.30900
H1716       H  0.19787494  0.68217295  0.30394090     0.31200
Zr1717     Zr  0.90395717  0.02436900  0.43956113     2.17500
O1718       O  0.91805722  0.95157884  0.44004046    -0.51200
O1719       O  0.84791796  0.01447077  0.46499120    -0.74400
O1720       O  0.95037998  0.00574473  0.46910054    -0.81200
O1721       O  0.86900652  0.01678812  0.38038270    -0.82900
O1722       O  0.97230239  0.06433332  0.48460174    -0.78500
O1723       O  0.87251661  0.98115821  0.41065790    -0.90200
O1724       O  0.80437085  0.06838895  0.46380460    -0.76100
O1725       O  0.88587365  0.08178184  0.46061560    -0.85600
O1726       O  0.85442057  0.06280924  0.42062804    -0.85300
O1727       O  0.96565543  0.06473175  0.44443830    -0.72100
O1728       O  0.93754788  0.04508515  0.40778494    -0.84200
Zr1729     Zr  0.92990311  0.17894681  0.41649231     2.26400
Zr1730     Zr  0.94611218  0.12231929  0.46602831     2.06300
Zr1731     Zr  0.88795666  0.08507170  0.38940473     2.10000
Zr1732     Zr  0.83605592  0.11951874  0.44173347     1.78800
O1733       O  0.90653495  0.05715733  0.35558558    -0.93000
O1734       O  0.81521559  0.15171445  0.47427026    -0.40800
O1735       O  0.86766191  0.14223211  0.41000887    -0.77400
O1736       O  0.89559533  0.16106199  0.44804659    -0.96100
O1737       O  0.97948548  0.14101562  0.43500972    -0.89400
O1738       O  0.94952570  0.12213949  0.39547659    -0.92300
C1739       C  0.81568973  0.03383937  0.47106821     1.01500
C1740       C  0.86359383  0.98431003  0.39086421     1.14400
C1741       C  0.97239806  0.02562934  0.48255386     1.05200
O1742       O  0.89603109  0.14512777  0.49150727    -0.94400
O1743       O  0.98983068  0.18418272  0.46328128    -0.90200
O1744       O  0.95770367  0.22737973  0.44140061    -0.83300
C1745       C  0.98590138  0.21948490  0.45465252     1.11800
O1746       O  0.02813835  0.01764446  0.40936703    -0.96400
Zr1747     Zr  0.99824992  0.08506072  0.41375311     1.88900
O1748       O  0.99744437  0.20269253  0.40798341    -0.73100
O1749       O  0.98365742  0.14062289  0.49753207    -0.52300
O1750       O  0.06039962  0.07453454  0.43395977    -0.97000
O1751       O  0.02529329  0.07978425  0.37840203    -0.54200
O1752       O  0.03818936  0.14702355  0.41115539    -0.73600
C1753       C  0.03241578  0.18535956  0.40848702     0.98800
O1754       O  0.89040237  0.24102104  0.41179174    -0.62400
O1755       O  0.81778784  0.09858388  0.37865622    -0.57200
O1756       O  0.92605009  0.19192440  0.37984178    -0.93900
O1757       O  0.90157696  0.13593823  0.36305747    -0.92300
O1758       O  0.77235342  0.10510591  0.42346404    -0.92700
O1759       O  0.79459172  0.17943906  0.43446015    -0.91400
C1760       C  0.91675597  0.17185661  0.36337495     1.17600
H1761       H  0.83044188  0.04665445  0.41752222     0.33600
H1762       H  0.88851749  0.18531698  0.45570182     0.44400
H1763       H  0.96415677  0.12946659  0.38311253     0.37900
H1764       H  0.98922267  0.04961680  0.44923272     0.34400
H1765       H  0.82008193  0.18120356  0.47247289     0.26200
H1766       H  0.97153786  0.12458057  0.50896213     0.32100
H1767       H  0.05697048  0.09202385  0.44636601     0.38100
H1768       H  0.76229753  0.07919421  0.42933529     0.32500
H1769       H  0.81998914  0.10683292  0.36391944     0.31400
H1770       H  0.88292997  0.06313763  0.34640838     0.33100
H1771       H  0.03231756  0.10794729  0.37418836     0.32000
H1772       H  0.81448556  0.20042236  0.43003141     0.36000
H1773       H  0.86696224  0.23278757  0.40299061     0.28800
H1774       H  0.90856225  0.94210004  0.45380789     0.33000
H1775       H  0.05494067  0.02209196  0.40260259     0.35900
H1776       H  0.80454710  0.07145971  0.37817892     0.28500
H1777       H  0.87817542  0.24638698  0.42561153     0.41300
H1778       H  0.88973310  0.12057914  0.49984793     0.31400
H1779       H  0.78504950  0.14887674  0.47463634     0.39000
H1780       H  0.00168714  0.07221389  0.36960724     0.30900
H1781       H  0.01163967  0.12945588  0.49567647     0.30900
H1782       H  0.94827916  0.94924018  0.44054513     0.31200
Zr1783     Zr  0.75858042  0.88914495  0.29865339     2.17500
O1784       O  0.83186101  0.87921631  0.29378141    -0.51200
O1785       O  0.76384350  0.94984626  0.27640892    -0.74400
O1786       O  0.77416216  0.84763976  0.26665047    -0.81200
O1787       O  0.77414225  0.91619312  0.35855404    -0.82900
O1788       O  0.71429830  0.82260652  0.25361474    -0.78500
O1789       O  0.80434084  0.92022919  0.32676159    -0.90200
O1790       O  0.70011417  0.97748546  0.27551361    -0.76100
O1791       O  0.69525644  0.90218242  0.28068644    -0.85600
O1792       O  0.71916869  0.93392745  0.32010545    -0.85300
O1793       O  0.72264965  0.82498363  0.29427060    -0.72100
O1794       O  0.74683283  0.85307563  0.33081135    -0.84200
Zr1795     Zr  0.61038782  0.84751384  0.32877621     2.26400
Zr1796     Zr  0.65861752  0.83926910  0.27650415     2.06300
Zr1797     Zr  0.70489619  0.89748097  0.35153689     2.10000
Zr1798     Zr  0.65693553  0.94719028  0.30212063     1.78800
O1799       O  0.73305687  0.88740839  0.38624409    -0.93000
O1800       O  0.61152483  0.97081592  0.27457376    -0.40800
O1801       O  0.64215219  0.91261146  0.33423857    -0.77400
O1802       O  0.61907475  0.88497782  0.29709892    -0.96100
O1803       O  0.64915863  0.80264629  0.30770106    -0.89400
O1804       O  0.67317541  0.83316382  0.34631282    -0.92300
C1805       C  0.73735815  0.97518689  0.26924471     1.01500
C1806       C  0.80411256  0.92594872  0.34693411     1.14400
C1807       C  0.75327004  0.82557013  0.25357609     1.05200
O1808       O  0.62167082  0.88380383  0.25282713    -0.94400
O1809       O  0.60289673  0.78886984  0.28132139    -0.90200
O1810       O  0.56097065  0.81398331  0.30614696    -0.83300
C1811       C  0.56891089  0.78862183  0.29153572     1.11800
O1812       O  0.78021959  0.76085698  0.32479691    -0.96400
Zr1813     Zr  0.71166338  0.78972929  0.32528238     1.88900
O1814       O  0.59795200  0.77949643  0.34077518    -0.73100
O1815       O  0.63842477  0.79870721  0.24634196    -0.52300
O1816       O  0.72125390  0.73258472  0.30161346    -0.97000
O1817       O  0.73244470  0.76420826  0.35931415    -0.54200
O1818       O  0.65652986  0.74449706  0.33425726    -0.73600
C1819       C  0.61937313  0.74701045  0.34048716     0.98800
O1820       O  0.54400940  0.87761151  0.33657634    -0.62400
O1821       O  0.68837721  0.96743828  0.36075551    -0.57200
O1822       O  0.60349384  0.85064208  0.36600064    -0.93900
O1823       O  0.66040278  0.87944661  0.38007261    -0.92300
O1824       O  0.67478540  0.01161892  0.31863079    -0.92700
O1825       O  0.59755771  0.98411859  0.31505322    -0.91400
C1826       C  0.62576386  0.86163309  0.38147500     1.17600
H1827       H  0.73393747  0.95879944  0.32288822     0.33600
H1828       H  0.59273069  0.89036594  0.29080797     0.44400
H1829       H  0.66961242  0.81802318  0.35884715     0.37900
H1830       H  0.73865498  0.80383278  0.28797550     0.34400
H1831       H  0.61433693  0.00078148  0.27472672     0.26200
H1832       H  0.64935448  0.81264225  0.23387878     0.32100
H1833       H  0.69357791  0.72670016  0.29612886     0.38100
H1834       H  0.69669706  0.02337664  0.30987120     0.32500
H1835       H  0.66723818  0.96506012  0.37173081     0.31400
H1836       H  0.72900561  0.91365735  0.39353965     0.33100
H1837       H  0.70792640  0.75092233  0.36522310     0.32000
H1838       H  0.57546522  0.96352737  0.31555776     0.36000
H1839       H  0.55047195  0.90510499  0.34194834     0.28800
H1840       H  0.83780001  0.88952907  0.27966814     0.33000
H1841       H  0.79844779  0.78381765  0.32844215     0.35900
H1842       H  0.71293866  0.97750180  0.36813464     0.28500
H1843       H  0.53121963  0.88259637  0.32285938     0.41300
H1844       H  0.64264619  0.89320398  0.24281854     0.31400
H1845       H  0.62490102  0.96242208  0.26143489     0.39000
H1846       H  0.73653324  0.78882352  0.36798658     0.30900
H1847       H  0.65398070  0.77295336  0.24737961     0.30900
H1848       H  0.83568952  0.84933952  0.29283306     0.31200
Zr1849     Zr  0.38873646  0.98847407  0.44199883     2.17500
O1850       O  0.39294157  0.06034026  0.45146900    -0.51200
O1851       O  0.32885827  0.99325595  0.46518156    -0.74400
O1852       O  0.35423491  0.02980170  0.41280123    -0.81200
O1853       O  0.47092504  0.94611494  0.48090824    -0.82900
O1854       O  0.35895142  0.99888857  0.38126002    -0.78500
O1855       O  0.44721291  0.00447355  0.46572948    -0.90200
O1856       O  0.29023312  0.93743800  0.45789108    -0.76100
O1857       O  0.34841603  0.95032996  0.41821848    -0.85600
O1858       O  0.37229309  0.92675537  0.46077103    -0.85300
O1859       O  0.43173465  0.97837360  0.41206721    -0.72100
O1860       O  0.44327429  0.94483182  0.44689455    -0.84200
Zr1861     Zr  0.43529313  0.84186187  0.41482729     2.26400
Zr1862     Zr  0.39232048  0.93630742  0.38908957     2.06300
Zr1863     Zr  0.43313146  0.88820369  0.46763919     2.10000
Zr1864     Zr  0.33068853  0.89006037  0.43669856     1.78800
O1865       O  0.46354545  0.88384364  0.50230581    -0.93000
O1866       O  0.27166262  0.90309076  0.41456546    -0.40800
O1867       O  0.39111366  0.85019987  0.44435791    -0.77400
O1868       O  0.37202218  0.87508210  0.40648179    -0.96100
O1869       O  0.45448734  0.90288634  0.39753733    -0.89400
O1870       O  0.47660076  0.87861653  0.43884744    -0.92300
C1871       C  0.29671774  0.97106006  0.46762758     1.01500
C1872       C  0.47243740  0.98467197  0.47768603     1.14400
C1873       C  0.34722366  0.02821568  0.39271819     1.05200
O1874       O  0.33342561  0.91626699  0.36828860    -0.94400
O1875       O  0.41588387  0.89232420  0.36170079    -0.90200
O1876       O  0.44312485  0.83693322  0.37763237    -0.83300
C1877       C  0.43424911  0.85804010  0.36145637     1.11800
O1878       O  0.51981949  0.00874611  0.42885828    -0.96400
Zr1879     Zr  0.49256304  0.94121517  0.42168106     1.88900
O1880       O  0.50647882  0.82645232  0.40920941    -0.73100
O1881       O  0.42887135  0.97413022  0.36219603    -0.52300
O1882       O  0.52309083  0.96371822  0.38878057    -0.97000
O1883       O  0.54701906  0.94939678  0.44713968    -0.54200
O1884       O  0.53924520  0.88715477  0.41250054    -0.73600
C1885       C  0.53863427  0.84861473  0.40923073     0.98800
O1886       O  0.40420474  0.77913161  0.40230382    -0.62400
O1887       O  0.37973750  0.86655451  0.49204687    -0.57200
O1888       O  0.45529766  0.78798218  0.43823147    -0.93900
O1889       O  0.46834871  0.82005351  0.46880061    -0.92300
O1890       O  0.30641856  0.84734615  0.46506471    -0.92700
O1891       O  0.29074490  0.83089912  0.42628891    -0.91400
C1892       C  0.47010860  0.78859945  0.45665825     1.17600
H1893       H  0.35992597  0.93091021  0.47429974     0.33600
H1894       H  0.35652728  0.85800140  0.39695336     0.44400
H1895       H  0.50079486  0.86482161  0.44346331     0.37900
H1896       H  0.43856708  0.00401944  0.40566693     0.34400
H1897       H  0.26523622  0.93231360  0.41662001     0.26200
H1898       H  0.40870131  0.97855929  0.35096506     0.32100
H1899       H  0.55232975  0.96839021  0.39202336     0.38100
H1900       H  0.27739726  0.85502139  0.46697295     0.32500
H1901       H  0.38984327  0.84070076  0.49810515     0.31400
H1902       H  0.49010339  0.87024291  0.50024096     0.33100
H1903       H  0.57271506  0.94360379  0.43948618     0.32000
H1904       H  0.31138804  0.81011624  0.42255686     0.36000
H1905       H  0.42750365  0.76085098  0.39940520     0.28800
H1906       H  0.36467827  0.07086701  0.45009301     0.33000
H1907       H  0.49540851  0.02638379  0.43001737     0.35900
H1908       H  0.38094398  0.88626842  0.50365301     0.28500
H1909       H  0.39050979  0.76711027  0.41460256     0.41300
H1910       H  0.33263255  0.93605679  0.35670089     0.31400
H1911       H  0.28237827  0.90147328  0.40023308     0.39000
H1912       H  0.54366634  0.92595980  0.45659471     0.30900
H1913       H  0.43416222  0.00157094  0.36801330     0.30900
H1914       H  0.40812840  0.07316870  0.43988042     0.31200
Zr1915     Zr  0.24371497  0.12628451  0.29973843     2.17500
O1916       O  0.31440445  0.12010595  0.28780689    -0.51200
O1917       O  0.23974586  0.06451129  0.27802564    -0.74400
O1918       O  0.28619661  0.09342768  0.32914659    -0.81200
O1919       O  0.20561796  0.20773067  0.25945199    -0.82900
O1920       O  0.25726595  0.10089606  0.36109897    -0.78500
O1921       O  0.26319135  0.18157733  0.27452035    -0.90200
O1922       O  0.17944769  0.03366829  0.28605259    -0.76100
O1923       O  0.20268531  0.09114203  0.32450066    -0.85600
O1924       O  0.17844401  0.11593028  0.28259759    -0.85300
O1925       O  0.24063285  0.16956276  0.32983684    -0.72100
O1926       O  0.20635325  0.18512255  0.29495924    -0.84200
Zr1927     Zr  0.10407830  0.18892503  0.32944078     2.26400
Zr1928     Zr  0.19534481  0.13610280  0.35375117     2.06300
Zr1929     Zr  0.14596455  0.18001291  0.27598522     2.10000
Zr1930     Zr  0.13875945  0.07968199  0.30762488     1.78800
O1931       O  0.14115088  0.20794050  0.24082758    -0.93000
O1932       O  0.14852060  0.01945522  0.32915082    -0.40800
O1933       O  0.10478204  0.14351099  0.30016776    -0.77400
O1934       O  0.13052508  0.12275257  0.33779317    -0.96100
O1935       O  0.16846756  0.20108018  0.34550905    -0.89400
O1936       O  0.14462975  0.22454116  0.30475771    -0.92300
C1937       C  0.21347900  0.03550429  0.27608557     1.01500
C1938       C  0.24440410  0.20688381  0.26214344     1.14400
C1939       C  0.28575023  0.08786480  0.34937696     1.05200
O1940       O  0.17471085  0.07640641  0.37348180    -0.94400
O1941       O  0.15397285  0.16206141  0.38175914    -0.90200
O1942       O  0.10101920  0.19574248  0.36673614    -0.83300
C1943       C  0.12154385  0.18369737  0.38259019     1.11800
O1944       O  0.28032017  0.25345208  0.31314807    -0.96400
Zr1945     Zr  0.21007809  0.23348772  0.32056205     1.88900
O1946       O  0.09954423  0.26066784  0.33642708    -0.73100
O1947       O  0.23385620  0.17047430  0.38114934    -0.52300
O1948       O  0.23860580  0.25822513  0.35352015    -0.97000
O1949       O  0.22235281  0.28699332  0.29517822    -0.54200
O1950       O  0.16334529  0.28619576  0.33103778    -0.73600
C1951       C  0.12549738  0.28975674  0.33590154     0.98800
O1952       O  0.03740572  0.16549374  0.34144571    -0.62400
O1953       O  0.11262705  0.13032014  0.25310207    -0.57200
O1954       O  0.05403335  0.22156075  0.30726949    -0.93900
O1955       O  0.08586361  0.22767219  0.27604827    -0.92300
O1956       O  0.09157119  0.06058556  0.27995664    -0.92700
O1957       O  0.07585062  0.04755271  0.31955584    -0.91400
C1958       C  0.05709187  0.23697700  0.28905211     1.17600
H1959       H  0.18007536  0.10285361  0.26912178     0.33600
H1960       H  0.11242327  0.10957185  0.34777757     0.44400
H1961       H  0.13418128  0.25076584  0.30064678     0.37900
H1962       H  0.26747373  0.17368112  0.33582594     0.34400
H1963       H  0.17837900  0.01418896  0.32897200     0.26200
H1964       H  0.23721104  0.15005443  0.39227920     0.32100
H1965       H  0.23567245  0.28820497  0.35299784     0.38100
H1966       H  0.10914255  0.05289098  0.26805009     0.32500
H1967       H  0.08756991  0.14402417  0.24795480     0.31400
H1968       H  0.13681700  0.23748515  0.24273731     0.33100
H1969       H  0.22009904  0.31291020  0.30305267     0.32000
H1970       H  0.05737827  0.07047813  0.32281257     0.36000
H1971       H  0.02613987  0.18868049  0.34943733     0.28800
H1972       H  0.32220713  0.09153459  0.29063746     0.33000
H1973       H  0.29125952  0.23104823  0.30452222     0.35900
H1974       H  0.13050715  0.12813045  0.24074527     0.28500
H1975       H  0.02007196  0.16374965  0.32887260     0.41300
H1976       H  0.18453899  0.08172049  0.38778681     0.31400
H1977       H  0.14278705  0.02864193  0.34349463     0.39000
H1978       H  0.19788735  0.28654174  0.28619245     0.30900
H1979       H  0.26179586  0.17473067  0.37551617     0.30900
H1980       H  0.33053188  0.13628886  0.29790081     0.31200
Zr1981     Zr  0.64012860  0.51269304  0.44882586     2.17500
O1982       O  0.63744966  0.44075609  0.45779359    -0.51200
O1983       O  0.69426779  0.50349065  0.47569392    -0.74400
O1984       O  0.66870697  0.47103110  0.41790538    -0.81200
O1985       O  0.54795219  0.55297538  0.48367676    -0.82900
O1986       O  0.66334471  0.50632958  0.38776600    -0.78500
O1987       O  0.57467681  0.49615120  0.46829986    -0.90200
O1988       O  0.73526320  0.55943041  0.47558210    -0.76100
O1989       O  0.69124760  0.55328591  0.43236000    -0.85600
O1990       O  0.65044558  0.57128986  0.47130662    -0.85300
O1991       O  0.61061146  0.53170650  0.41584177    -0.72100
O1992       O  0.58123068  0.55459257  0.45160212    -0.84200
Zr1993     Zr  0.61120166  0.66713422  0.42484535     2.26400
Zr1994     Zr  0.66169521  0.57497356  0.40005147     2.06300
Zr1995     Zr  0.58912000  0.61158719  0.47423632     2.10000
Zr1996     Zr  0.70202096  0.61087341  0.45454035     1.78800
O1997       O  0.54318841  0.61796163  0.50393642    -0.93000
O1998       O  0.77074574  0.60380880  0.44031586    -0.40800
O1999       O  0.64082214  0.65135181  0.45796571    -0.77400
O2000       O  0.67574929  0.63294605  0.42136182    -0.96100
O2001       O  0.59825678  0.60970057  0.40320300    -0.89400
O2002       O  0.55977344  0.62809925  0.44177936    -0.92300
C2003       C  0.72529082  0.52417371  0.48237334     1.01500
C2004       C  0.54703213  0.51476440  0.47954063     1.14400
C2005       C  0.67238727  0.47408023  0.39759939     1.05200
O2006       O  0.73517566  0.58687079  0.39947529    -0.91200
O2007       O  0.64025369  0.62128774  0.37295507    -0.90200
O2008       O  0.62004632  0.68002769  0.38840492    -0.83300
C2009       C  0.62806797  0.65818882  0.37240864     1.11800
O2010       O  0.51392380  0.50447812  0.41858333    -0.96400
Zr2011     Zr  0.54868995  0.56992713  0.42030283     1.88900
O2012       O  0.54619243  0.68733528  0.41087467    -0.73100
O2013       O  0.68645180  0.56699176  0.36432979    -0.52300
O2014       O  0.52981047  0.55211190  0.38483757    -0.97000
O2015       O  0.48647198  0.56290768  0.44091670    -0.54200
O2016       O  0.51114187  0.62780510  0.40865108    -0.73600
C2017       C  0.51426580  0.66645082  0.40679074     0.98800
O2018       O  0.64746286  0.73165431  0.42205799    -0.62400
O2019       O  0.63101559  0.62563059  0.50476311    -0.57200
O2020       O  0.57890463  0.71658597  0.44718677    -0.93900
O2021       O  0.55410263  0.67945102  0.47414782    -0.92300
O2022       O  0.71225512  0.64064853  0.48883064    -0.92700
O2023       O  0.74017145  0.67452777  0.45313614    -0.91400
C2024       C  0.55643633  0.71261531  0.46335056     1.17600
H2025       H  0.65777680  0.56381820  0.48538504     0.33600
H2026       H  0.69518505  0.65067274  0.41448717     0.44400
H2027       H  0.53432641  0.64224873  0.44399313     0.37900
H2028       H  0.60276823  0.50809762  0.40781839     0.34400
H2029       H  0.78923467  0.60800433  0.45234787     0.26200
H2030       H  0.71016276  0.54797966  0.36485121     0.32100
H2031       H  0.55613391  0.54629763  0.37784209     0.38100
H2032       H  0.74124838  0.63524255  0.49219198     0.32500
H2033       H  0.62042635  0.65168628  0.51026170     0.31400
H2034       H  0.51611488  0.62444669  0.49790684     0.33100
H2035       H  0.46440130  0.57350635  0.43189882     0.32000
H2036       H  0.72597995  0.69118196  0.44255906     0.36000
H2037       H  0.66190706  0.73457685  0.43550708     0.28800
H2038       H  0.66604969  0.43121399  0.45660357     0.33000
H2039       H  0.53181263  0.48572563  0.42646429     0.35900
H2040       H  0.62264027  0.60503609  0.51516496     0.28500
H2041       H  0.66951850  0.72674589  0.41180937     0.41300
H2042       H  0.74743798  0.55934660  0.39899110     0.31400
H2043       H  0.77348223  0.57453409  0.43704602     0.39000
H2044       H  0.48904044  0.58334621  0.45216668     0.30900
H2045       H  0.66507462  0.55214369  0.35666548     0.30900
H2046       H  0.62302773  0.42764656  0.44600047     0.31200
Zr2047     Zr  0.76022103  0.38292859  0.29856321     2.17500
O2048       O  0.68707011  0.37765979  0.29122702    -0.51200
O2049       O  0.74737899  0.43596786  0.27147515    -0.74400
O2050       O  0.71897933  0.41208667  0.32975629    -0.81200
O2051       O  0.80026578  0.29301313  0.26326316    -0.82900
O2052       O  0.75908973  0.42239982  0.35819151    -0.78500
O2053       O  0.74401229  0.31647858  0.28061274    -0.90200
O2054       O  0.80128680  0.47975965  0.27135045    -0.76100
O2055       O  0.80053184  0.43509338  0.31436915    -0.85600
O2056       O  0.81633767  0.39576804  0.27481969    -0.85300
O2057       O  0.78248014  0.35580143  0.33137561    -0.72100
O2058       O  0.80539232  0.32864176  0.29610416    -0.84200
Zr2059     Zr  0.91806117  0.35942442  0.31888411     2.26400
Zr2060     Zr  0.82618231  0.40681332  0.34619923     2.06300
Zr2061     Zr  0.85762058  0.33579495  0.27162061     2.10000
Zr2062     Zr  0.85577095  0.44829355  0.29101990     1.78800
O2063       O  0.86083051  0.29292546  0.24056583    -0.93000
O2064       O  0.84424563  0.51354353  0.30808928    -0.40800
O2065       O  0.89815335  0.38868554  0.28636544    -0.77400
O2066       O  0.88172122  0.42229975  0.32326749    -0.96100
O2067       O  0.86365421  0.34521515  0.34245871    -0.89400
O2068       O  0.87794551  0.30734662  0.30350676    -0.92300
C2069       C  0.76636227  0.46787994  0.26468466     1.01500
C2070       C  0.76291403  0.28977487  0.26902097     1.14400
C2071       C  0.72437392  0.42295439  0.34928532     1.05200
O2072       O  0.82856214  0.47912291  0.35423212    -0.94400
O2073       O  0.88323353  0.41117972  0.36963027    -0.90200
O2074       O  0.93342207  0.37365468  0.35443924    -0.83300
C2075       C  0.91802392  0.39353769  0.36964827     1.11800
O2076       O  0.75793801  0.25861351  0.32975042    -0.96400
Zr2077     Zr  0.82215013  0.29549599  0.32638352     1.88900
O2078       O  0.94085349  0.29488901  0.33217384    -0.73100
O2079       O  0.81234748  0.38097452  0.38111499    -0.52300
O2080       O  0.80890471  0.28319458  0.36341101    -0.97000
O2081       O  0.81560329  0.23053536  0.30843936    -0.54200
O2082       O  0.88228040  0.25857448  0.33661652    -0.73600
C2083       C  0.92129856  0.26254334  0.33687736     0.98800
O2084       O  0.98262531  0.39644408  0.31981137    -0.62400
O2085       O  0.87278552  0.38025609  0.24204899    -0.57200
O2086       O  0.96610743  0.32590633  0.29589165    -0.93900
O2087       O  0.92544268  0.29989065  0.27060673    -0.92300
O2088       O  0.88485195  0.46499014  0.25719659    -0.92700
O2089       O  0.91724024  0.49017140  0.29202825    -0.91400
C2090       C  0.95979231  0.30157696  0.28061119     1.17600
H2091       H  0.80776850  0.40250234  0.26070055     0.33600
H2092       H  0.89942178  0.44236141  0.32962835     0.44400
H2093       H  0.89184540  0.28203804  0.30111494     0.37900
H2094       H  0.75969468  0.34931466  0.34036744     0.34400
H2095       H  0.84759460  0.53405034  0.29692342     0.26200
H2096       H  0.80452958  0.40484724  0.38951715     0.32100
H2097       H  0.83571952  0.28635952  0.37043301     0.38100
H2098       H  0.86249635  0.46080471  0.24707678     0.32500
H2099       H  0.89918855  0.37039303  0.23645500     0.31400
H2100       H  0.87076446  0.26623125  0.24547160     0.33100
H2101       H  0.82423352  0.20979455  0.31866008     0.32000
H2102       H  0.93939166  0.47114087  0.29589796     0.36000
H2103       H  0.98584162  0.40742305  0.30556772     0.28800
H2104       H  0.67604256  0.40539017  0.29338995     0.33000
H2105       H  0.73889735  0.27337833  0.32047976     0.35900
H2106       H  0.85240025  0.37302126  0.23124976     0.28500
H2107       H  0.97717710  0.42067897  0.32850878     0.41300
H2108       H  0.82505608  0.48054219  0.36949892     0.31400
H2109       H  0.81467829  0.51413279  0.31129988     0.39000
H2110       H  0.83769305  0.23063268  0.29787563     0.30900
H2111       H  0.78703095  0.36433018  0.37999514     0.30900
H2112       H  0.67579026  0.36151451  0.30290344     0.31200
C2113       C  0.69175729  0.44099444  0.38429023    -0.16300
C2114       C  0.69031298  0.44044067  0.36272165    -0.31400
H2115       H  0.71324995  0.42101648  0.39210938     0.12800
H2116       H  0.66748370  0.45877541  0.35483298     0.13300
C2117       C  0.02974385  0.27246702  0.28504872    -0.16300
C2118       C  0.99252768  0.27074144  0.27584965    -0.31400
H2119       H  0.03724349  0.29935573  0.29411715     0.12800
H2120       H  0.98404888  0.24367173  0.26717604     0.13300
C2121       C  0.49097583  0.75016768  0.46323199    -0.16300
C2122       C  0.53087345  0.74883564  0.46870044    -0.31400
H2123       H  0.47688582  0.72194109  0.45805052     0.12800
H2124       H  0.54679766  0.77748873  0.47104132     0.13300
C2125       C  0.32199098  0.06038709  0.38172783    -0.16300
C2126       C  0.31849875  0.06318083  0.36032884    -0.31400
H2127       H  0.30334971  0.08003766  0.39144740     0.12800
H2128       H  0.33818381  0.04455067  0.35062298     0.13300
C2129       C  0.60184474  0.71102575  0.35022732    -0.16300
C2130       C  0.62486497  0.67760357  0.35216943    -0.31400
H2131       H  0.57643040  0.71608241  0.36084998     0.12800
H2132       H  0.64887990  0.67080405  0.34100036     0.13300
C2133       C  0.61008897  0.85346411  0.40222834    -0.16300
C2134       C  0.57732411  0.82933804  0.40386960    -0.31400
H2135       H  0.61520517  0.87744636  0.41359656     0.12800
H2136       H  0.57488230  0.80264014  0.39392212     0.13300
C2137       C  0.92435748  0.19166251  0.34359249    -0.16300
C2138       C  0.94422138  0.22729883  0.34368600    -0.31400
H2139       H  0.90287164  0.18464895  0.33117339     0.12800
H2140       H  0.96822645  0.23327471  0.35498595     0.13300
C2141       C  0.10476806  0.19241399  0.40321622    -0.16300
C2142       C  0.06830044  0.21067926  0.40424223    -0.31400
H2143       H  0.11263456  0.17014035  0.41505679     0.12800
H2144       H  0.06245538  0.23673145  0.39426220     0.13300
C2145       C  0.84232957  0.95008987  0.37929073    -0.16300
C2146       C  0.83831257  0.94859925  0.35791115    -0.31400
H2147       H  0.82515700  0.92860893  0.38868352     0.12800
H2148       H  0.85684047  0.96881144  0.34845185     0.13300
C2149       C  0.49861765  0.75994136  0.28593599    -0.16300
C2150       C  0.53944950  0.75458945  0.28795685    -0.31400
H2151       H  0.48671971  0.79057752  0.28411262     0.12800
H2152       H  0.55163647  0.72387572  0.28848314     0.13300
C2153       C  0.46121552  0.80383127  0.34062006    -0.16300
C2154       C  0.44302536  0.84018053  0.34114184    -0.31400
H2155       H  0.48641640  0.79775186  0.35122172     0.12800
H2156       H  0.42132933  0.84802410  0.32896592     0.13300
C2157       C  0.44353063  0.66591282  0.39854984    -0.16300
C2158       C  0.47864862  0.68691424  0.39847437    -0.31400
H2159       H  0.43654145  0.64529832  0.41129181     0.12800
H2160       H  0.48441853  0.71003554  0.38674669     0.13300
C2161       C  0.01153421  0.29123606  0.45858877    -0.16300
C2162       C  0.01870092  0.25071235  0.45786201    -0.31400
H2163       H  0.98025589  0.30194227  0.46013806     0.12800
H2164       H  0.05015316  0.24008278  0.45759139     0.13300
C2165       C  0.14034347  0.35743156  0.34722304    -0.16300
C2166       C  0.11190434  0.32929693  0.34316852    -0.31400
H2167       H  0.16831199  0.35917917  0.33810961     0.12800
H2168       H  0.08292414  0.32986323  0.35150446     0.13300
C2169       C  0.97549991  0.37271462  0.39031374    -0.16300
C2170       C  0.94360145  0.39780069  0.38789594    -0.31400
H2171       H  0.97724295  0.34419044  0.38176471     0.12800
H2172       H  0.94042920  0.42529544  0.39716657     0.13300
C2173       C  0.20604353  0.58732515  0.36692092    -0.16300
C2174       C  0.20579794  0.58752570  0.38841615    -0.31400
H2175       H  0.18746916  0.56497193  0.35880752     0.12800
H2176       H  0.22294673  0.61071136  0.39670274     0.13300
C2177       C  0.33160283  0.46003898  0.85577376    -0.16300
C2178       C  0.33548448  0.46273875  0.87710380    -0.31400
H2179       H  0.35051364  0.47924006  0.84596629     0.12800
H2180       H  0.31747654  0.44246596  0.88678848     0.13300
C2181       C  0.52177375  0.75432047  0.95765822    -0.16300
C2182       C  0.51564876  0.79463863  0.95985700    -0.31400
H2183       H  0.55286384  0.74279241  0.95672446     0.12800
H2184       H  0.48476411  0.80607939  0.96201200     0.13300
C2185       C  0.99471425  0.26061797  0.78590494    -0.16300
C2186       C  0.03580360  0.25543684  0.78690861    -0.31400
H2187       H  0.98262767  0.29132720  0.78490571     0.12800
H2188       H  0.04810053  0.22476241  0.78663149     0.13300
C2189       C  0.70428517  0.08757632  0.86680094    -0.16300
C2190       C  0.70613057  0.08727913  0.88827250    -0.31400
H2191       H  0.68534033  0.06506267  0.85903920     0.12800
H2192       H  0.72389990  0.11045663  0.89621999     0.13300
C2193       C  0.94111479  0.33243011  0.84615372    -0.16300
C2194       C  0.95798096  0.29540664  0.84664716    -0.31400
H2195       H  0.92122157  0.34075898  0.83328831     0.12800
H2196       H  0.98078525  0.28817787  0.85840079     0.13300
C2197       C  0.07689525  0.32326130  0.90372737    -0.16300
C2198       C  0.11145911  0.34493533  0.90245932    -0.31400
H2199       H  0.07244196  0.29743193  0.89337792     0.12800
H2200       H  0.11836635  0.36718277  0.91448858     0.13300
C2201       C  0.61782012  0.68036203  0.90704561    -0.16300
C2202       C  0.58353815  0.70206620  0.90914331    -0.31400
H2203       H  0.62343620  0.65525142  0.91765696     0.12800
H2204       H  0.58092063  0.73042210  0.90052717     0.13300
C2205       C  0.64528152  0.85519209  0.84966639    -0.16300
C2206       C  0.61699924  0.82630124  0.84659451    -0.31400
H2207       H  0.67198113  0.85771834  0.83966686     0.12800
H2208       H  0.58915173  0.82619442  0.85588160     0.13300
C2209       C  0.83219438  0.56762426  0.85759220    -0.16300
C2210       C  0.83855152  0.56778096  0.87890265    -0.31400
H2211       H  0.84850970  0.54571293  0.84806518     0.12800
H2212       H  0.82353120  0.59086674  0.88826549     0.13300
C2213       C  0.01093377  0.23116634  0.96324226    -0.16300
C2214       C  0.01606275  0.27122861  0.96700731    -0.31400
H2215       H  0.98083455  0.22014578  0.95880868     0.12800
H2216       H  0.04575867  0.28196494  0.97224434     0.13300
C2217       C  0.97633261  0.17082147  0.89679162    -0.16300
C2218       C  0.94289295  0.14721229  0.89638558    -0.31400
H2219       H  0.97951619  0.19638022  0.88618287     0.12800
H2220       H  0.93819812  0.12349573  0.90792727     0.13300
C2221       C  0.13373074  0.17496899  0.85168981    -0.16300
C2222       C  0.10934360  0.20715336  0.84911607    -0.31400
H2223       H  0.15933871  0.16950404  0.84126678     0.12800
H2224       H  0.08246260  0.21080249  0.85892813     0.13300
C2225       C  0.45180804  0.88784937  0.88895682    -0.16300
C2226       C  0.48553008  0.86502154  0.89030051    -0.31400
H2227       H  0.44572223  0.91190955  0.90014879     0.12800
H2228       H  0.49016148  0.83946627  0.87979790     0.13300
C2229       C  0.50344627  0.77565723  0.77560499    -0.16300
C2230       C  0.52026156  0.75799402  0.79260406    -0.31400
H2231       H  0.51228671  0.76664409  0.76000706     0.12800
H2232       H  0.50735613  0.76672711  0.80750436     0.13300
C2233       C  0.45999251  0.73369059  0.84057771    -0.16300
C2234       C  0.44179291  0.69717330  0.83974266    -0.31400
H2235       H  0.48482922  0.73919590  0.85146716     0.12800
H2236       H  0.41989817  0.69080878  0.82741945     0.13300
C2237       C  0.20455744  0.94157797  0.86403077    -0.16300
C2238       C  0.20608595  0.94146440  0.88556734    -0.31400
H2239       H  0.18203446  0.96065395  0.85636669     0.12800
H2240       H  0.22717258  0.92098336  0.89332318     0.13300
C2241       C  0.05980722  0.49501282  0.99133634    -0.16300
C2242       C  0.02745294  0.51666342  0.98359827    -0.31400
H2243       H  0.05929495  0.46197903  0.99113822     0.12800
H2244       H  0.02786316  0.54963851  0.98353833     0.13300
C2245       C  0.27252294  0.52301567  0.99595634    -0.16300
C2246       C  0.26902747  0.54711210  0.97905116    -0.31400
H2247       H  0.29833139  0.50255863  0.99774927     0.12800
H2248       H  0.24292411  0.56767741  0.97864633     0.13300
C2249       C  0.24761788  0.27491355  0.24519171    -0.16300
C2250       C  0.26717493  0.24070044  0.25218411    -0.31400
H2251       H  0.21448008  0.27692034  0.24571024     0.12800
H2252       H  0.30029741  0.23857079  0.25164150     0.13300
C2253       C  0.27069155  0.48929766  0.25146692    -0.16300
C2254       C  0.26908672  0.53030734  0.25286893    -0.31400
H2255       H  0.27308343  0.47173135  0.26570922     0.12800
H2256       H  0.26609410  0.54788956  0.23865949     0.13300
C2257       C  0.20235023  0.43395949  0.13129313    -0.16300
C2258       C  0.20540369  0.43485437  0.10983579    -0.31400
H2259       H  0.17913314  0.45237718  0.13884612     0.12800
H2260       H  0.22808013  0.41576831  0.10229492     0.13300
C2261       C  0.52896380  0.00410217  0.01487287    -0.16300
C2262       C  0.55978106  0.02596827  0.00591547    -0.31400
H2263       H  0.53189638  0.97155652  0.01706421     0.12800
H2264       H  0.55709775  0.05875297  0.00435574     0.13300
C2265       C  0.24870858  0.01834478  0.00511140    -0.16300
C2266       C  0.28959951  0.01462011  0.00621311    -0.31400
H2267       H  0.23195868  0.02490311  0.01931472     0.12800
H2268       H  0.30666553  0.00817855  0.99209400     0.13300
C2269       C  0.43302731  0.19366776  0.14771940    -0.16300
C2270       C  0.45198562  0.22969445  0.14745440    -0.31400
H2271       H  0.41180741  0.18647078  0.16022888     0.12800
H2272       H  0.47556344  0.23606535  0.13597866     0.13300
C2273       C  0.27201735  0.77529331  0.24325963    -0.16300
C2274       C  0.25209613  0.74065557  0.24928480    -0.31400
H2275       H  0.30493145  0.77793261  0.24507390     0.12800
H2276       H  0.21909622  0.73822441  0.24777958     0.13300
C2277       C  0.23360647  0.01180893  0.24096855    -0.16300
C2278       C  0.22027550  0.00338921  0.26032330    -0.31400
H2279       H  0.24299574  0.04250503  0.23694338     0.12800
H2280       H  0.20683768  0.97368521  0.26331776     0.13300
C2281       C  0.12048951  0.69790402  0.14990711    -0.16300
C2282       C  0.14758213  0.66754884  0.14788248    -0.31400
H2283       H  0.09250793  0.69764233  0.14072597     0.12800
H2284       H  0.17445544  0.66560572  0.15779306     0.13300
C2285       C  0.34038762  0.95597195  0.11751753    -0.16300
C2286       C  0.33558781  0.95663825  0.13890963    -0.31400
H2287       H  0.32424912  0.93300329  0.10855488     0.12800
H2288       H  0.35315806  0.97813532  0.14811137     0.13300
C2289       C  0.76306829  0.21803293  0.25588580    -0.16300
C2290       C  0.74198049  0.25167741  0.26252203    -0.31400
H2291       H  0.79625808  0.21769539  0.25668696     0.12800
H2292       H  0.70885118  0.25235006  0.26190090     0.13300
C2293       C  0.72406390  0.00330127  0.23507938    -0.16300
C2294       C  0.74870948  0.00275437  0.25184638    -0.31400
H2295       H  0.70043940  0.97996622  0.23423772     0.12800
H2296       H  0.77345927  0.02449525  0.25364256     0.13300
C2297       C  0.53318800  0.26453206  0.20796105    -0.16300
C2298       C  0.49227367  0.25892333  0.20800151    -0.31400
H2299       H  0.54534874  0.29499290  0.21014739     0.12800
H2300       H  0.48013104  0.22819508  0.20719332     0.13300
C2301       C  0.57616072  0.20094127  0.08906595    -0.16300
C2302       C  0.61119885  0.17992283  0.09009662    -0.31400
H2303       H  0.57218554  0.22758846  0.09890901     0.12800
H2304       H  0.61738324  0.15657524  0.07852523     0.13300
C2305       C  0.98516032  0.00423639  0.99620107    -0.16300
C2306       C  0.01902181  0.98574227  0.98777747    -0.31400
H2307       H  0.98228976  0.03713338  0.99574141     0.12800
H2308       H  0.02223679  0.95290640  0.98832173     0.13300
C2309       C  0.76896691  0.96938638  0.02008836    -0.16300
C2310       C  0.76949895  0.99363478  0.00314039    -0.31400
H2311       H  0.74348719  0.94818507  0.02143211     0.12800
H2312       H  0.79366874  0.01580365  0.00078270     0.13300
C2313       C  0.09042026  0.82242620  0.08743279    -0.16300
C2314       C  0.12334425  0.84584693  0.09001177    -0.31400
H2315       H  0.08839237  0.79437555  0.09634856     0.12800
H2316       H  0.12881100  0.87063369  0.07916748     0.13300
C2317       C  0.83652314  0.05846104  0.11751836    -0.16300
C2318       C  0.83117979  0.06223138  0.13877097    -0.31400
H2319       H  0.81940750  0.07856883  0.10734975     0.12800
H2320       H  0.84922420  0.04321018  0.14906795     0.13300
C2321       C  0.02922923  0.76711077  0.03839688    -0.16300
C2322       C  0.02422959  0.72640547  0.03938705    -0.31400
H2323       H  0.05960816  0.77944020  0.03570194     0.12800
H2324       H  0.99358440  0.71388651  0.04074347     0.13300
C2325       C  0.51984179  0.53519165  0.00420161    -0.16300
C2326       C  0.48513454  0.51610804  0.99720011    -0.31400
H2327       H  0.52270788  0.56804926  0.00337865     0.12800
H2328       H  0.48261067  0.48320816  0.99799021     0.13300
C2329       C  0.74814031  0.49950983  0.98753364    -0.16300
C2330       C  0.78813830  0.50856421  0.98637355    -0.31400
H2331       H  0.73320560  0.48752137  0.97372923     0.12800
H2332       H  0.80372230  0.52035626  0.00003018     0.13300
C2333       C  0.51014265  0.28998787  0.03114118    -0.16300
C2334       C  0.51500905  0.25036637  0.02619875    -0.31400
H2335       H  0.48063513  0.30014214  0.03691384     0.12800
H2336       H  0.54402966  0.24021899  0.01981118     0.13300
C2337       C  0.47594145  0.35643900  0.09954495    -0.16300
C2338       C  0.44348140  0.38128166  0.10105834    -0.31400
H2339       H  0.47966023  0.33078747  0.11004494     0.12800
H2340       H  0.43819430  0.40514086  0.08966336     0.13300
C2341       C  0.63075179  0.35041269  0.14218654    -0.16300
C2342       C  0.60568487  0.31884571  0.14530626    -0.31400
H2343       H  0.65680570  0.35564964  0.15234908     0.12800
H2344       H  0.57854674  0.31539795  0.13565361     0.13300
C2345       C  0.75425321  0.76290005  0.23181383    -0.16300
C2346       C  0.77465733  0.79542453  0.24018073    -0.31400
H2347       H  0.72108322  0.76220120  0.23160917     0.12800
H2348       H  0.80788091  0.79603337  0.24007189     0.13300
C2349       C  0.75406401  0.53020038  0.24426237    -0.16300
C2350       C  0.75130242  0.48938144  0.24584511    -0.31400
H2351       H  0.75454072  0.54802069  0.25849809     0.12800
H2352       H  0.75008647  0.47138452  0.23168502     0.13300
C2353       C  0.00603529  0.74417151  0.21886869    -0.16300
C2354       C  0.03239705  0.75373499  0.20327511    -0.31400
H2355       H  0.00564716  0.76209572  0.23304563     0.12800
H2356       H  0.02890408  0.73726944  0.18871311     0.13300
C2357       C  0.95488987  0.64691871  0.10361948    -0.16300
C2358       C  0.99038052  0.66733109  0.10369016    -0.31400
H2359       H  0.94743013  0.62610775  0.09102646     0.12800
H2360       H  0.99656038  0.68998009  0.11563112     0.13300
C2361       C  0.96721515  0.78932552  0.15616415    -0.16300
C2362       C  0.94956330  0.82613642  0.15684662    -0.31400
H2363       H  0.99255530  0.78377599  0.14558437     0.12800
H2364       H  0.92744389  0.83267969  0.16903227     0.13300
C2365       C  0.70867552  0.58249108  0.10553202    -0.16300
C2366       C  0.70666056  0.58410102  0.12705538    -0.31400
H2367       H  0.73102764  0.60122725  0.09752712     0.12800
H2368       H  0.68290240  0.56678976  0.13486095     0.13300
C2369       C  0.74835308  0.24698454  0.75044091    -0.16300
C2370       C  0.76860178  0.28109177  0.74400800    -0.31400
H2371       H  0.71528372  0.24502112  0.74917244     0.12800
H2372       H  0.80164770  0.28316146  0.74540690     0.13300
C2373       C  0.72771912  0.50627424  0.75918366    -0.16300
C2374       C  0.73245434  0.51707043  0.73910222    -0.31400
H2375       H  0.72096644  0.47472582  0.76291399     0.12800
H2376       H  0.73347713  0.54911334  0.73499540     0.13300
C2377       C  0.02775726  0.50044705  0.51511128    -0.16300
C2378       C  0.05959348  0.52209658  0.50689426    -0.31400
H2379       H  0.02927574  0.46755253  0.51622899     0.12800
H2380       H  0.05798874  0.55507516  0.50624227     0.13300
C2381       C  0.74796712  0.51040939  0.50116158    -0.16300
C2382       C  0.78923061  0.51039751  0.50183815    -0.31400
H2383       H  0.73119024  0.51201075  0.51571907     0.12800
H2384       H  0.80601954  0.50845647  0.48729360     0.13300
C2385       C  0.83945947  0.45813154  0.61688675    -0.16300
C2386       C  0.83453451  0.45944560  0.63827995    -0.31400
H2387       H  0.82304217  0.43497133  0.60818716     0.12800
H2388       H  0.85204321  0.48120066  0.64735092     0.13300
C2389       C  0.74205808  0.77537124  0.74378795    -0.16300
C2390       C  0.76224484  0.74120270  0.75008742    -0.31400
H2391       H  0.70906203  0.77772693  0.74535605     0.12800
H2392       H  0.79521436  0.73887693  0.74843793     0.13300
C2393       C  0.76106150  0.03319595  0.75037576    -0.16300
C2394       C  0.75885897  0.99211250  0.74922172    -0.31400
H2395       H  0.76234519  0.05028598  0.73594376     0.12800
H2396       H  0.75702313  0.97472232  0.76354213     0.13300
C2397       C  0.94566180  0.73464665  0.64294488    -0.16300
C2398       C  0.92758935  0.69801381  0.64330703    -0.31400
H2399       H  0.96804305  0.74183154  0.63098625     0.12800
H2400       H  0.90767546  0.68988628  0.65620182     0.13300
C2401       C  0.50747903  0.00665598  0.48701329    -0.16300
C2402       C  0.54126872  0.98719261  0.49446273    -0.31400
H2403       H  0.50568934  0.03961566  0.48740543     0.12800
H2404       H  0.54299339  0.95421064  0.49409707     0.13300
C2405       C  0.75181564  0.01790438  0.49076352    -0.16300
C2406       C  0.79305988  0.01867566  0.48962058    -0.31400
H2407       H  0.73413675  0.01953684  0.47648860     0.12800
H2408       H  0.81057587  0.01658987  0.50393483     0.13300
C2409       C  0.61791405  0.20314427  0.64678803    -0.16300
C2410       C  0.64523577  0.17303990  0.64453625    -0.31400
H2411       H  0.59072736  0.20402345  0.63701294     0.12800
H2412       H  0.67142632  0.17004590  0.65483813     0.13300
C2413       C  0.69243881  0.93409057  0.63078952    -0.16300
C2414       C  0.69446164  0.93455954  0.60930604    -0.31400
H2415       H  0.66981837  0.95297323  0.63851324     0.12800
H2416       H  0.71608528  0.91458990  0.60156066     0.13300
C2417       C  0.24895042  0.75959594  0.76170343    -0.16300
C2418       C  0.26854201  0.72585004  0.75413316    -0.31400
H2419       H  0.21581034  0.76134422  0.76157831     0.12800
H2420       H  0.30173293  0.72437969  0.75435224     0.13300
C2421       C  0.23631677  0.50951393  0.73700399    -0.16300
C2422       C  0.23686106  0.51817298  0.75746210    -0.31400
H2423       H  0.23341600  0.47791646  0.73222488     0.12800
H2424       H  0.23366811  0.54969957  0.76231232     0.13300
C2425       C  0.98822224  0.76167220  0.70661044    -0.16300
C2426       C  0.02911159  0.76665320  0.70905291    -0.31400
H2427       H  0.97627307  0.73111255  0.70446771     0.12800
H2428       H  0.04096034  0.79672372  0.71262270     0.13300
C2429       C  0.06545004  0.70132312  0.59232353    -0.16300
C2430       C  0.10014537  0.67963836  0.59326943    -0.31400
H2431       H  0.06077655  0.72676137  0.60288453     0.12800
H2432       H  0.10655626  0.65723777  0.58124189     0.13300
C2433       C  0.47660167  0.51087767  0.49494025    -0.16300
C2434       C  0.51080217  0.49211457  0.48725120    -0.31400
H2435       H  0.47429938  0.54383294  0.49467741     0.12800
H2436       H  0.51339736  0.45923373  0.48761653     0.13300
C2437       C  0.26570022  0.49234246  0.50015057    -0.16300
C2438       C  0.26201051  0.47261057  0.51837781    -0.31400
H2439       H  0.29222740  0.51113814  0.49683693     0.12800
H2440       H  0.23483073  0.45396110  0.52062234     0.13300
C2441       C  0.51804568  0.22995772  0.53712947    -0.16300
C2442       C  0.52347025  0.27065971  0.53540661    -0.31400
H2443       H  0.48728087  0.21818297  0.53926984     0.12800
H2444       H  0.55376337  0.28244595  0.53195519     0.13300
C2445       C  0.58529738  0.33068770  0.58718277    -0.16300
C2446       C  0.61813291  0.35420661  0.58980296    -0.31400
H2447       H  0.58330902  0.30238517  0.59589534     0.12800
H2448       H  0.62287730  0.38018805  0.57962447     0.13300
C2449       C  0.32675734  0.55965563  0.61588137    -0.16300
C2450       C  0.32341247  0.56327965  0.63725120    -0.31400
H2451       H  0.30808917  0.57917872  0.60612542     0.12800
H2452       H  0.34302947  0.54489652  0.64709900     0.13300
C2453       C  0.25380229  0.26809372  0.73265285    -0.16300
C2454       C  0.27310049  0.30194064  0.74013320    -0.31400
H2455       H  0.22068406  0.26618228  0.73263622     0.12800
H2456       H  0.30628734  0.30366124  0.73996788     0.13300
C2457       C  0.25912959  0.03518334  0.74546127    -0.16300
C2458       C  0.25874910  0.99429826  0.74641353    -0.31400
H2459       H  0.25840903  0.05229591  0.75991971     0.12800
H2460       H  0.25902383  0.97719302  0.73195209     0.13300
C2461       C  0.51108219  0.24715293  0.71978227    -0.16300
C2462       C  0.51592454  0.28059974  0.70774340    -0.31400
H2463       H  0.53662397  0.23593092  0.72890223     0.12800
H2464       H  0.49052349  0.28844240  0.69758824     0.13300
C2465       C  0.46581421  0.29687233  0.65408201    -0.16300
C2466       C  0.44776261  0.33341100  0.65452713    -0.31400
H2467       H  0.48984063  0.29061142  0.64283429     0.12800
H2468       H  0.42689677  0.34065032  0.66717515     0.13300
C2469       C  0.45125334  0.15726198  0.60296357    -0.16300
C2470       C  0.48696746  0.17707357  0.60224953    -0.31400
H2471       H  0.44296773  0.13590347  0.59073267     0.12800
H2472       H  0.49412046  0.20041961  0.61367796     0.13300
C2473       C  0.03894442  0.02428904  0.50118676    -0.16300
C2474       C  0.00511454  0.00417703  0.49403156    -0.31400
H2475       H  0.04077726  0.05722399  0.50034556     0.12800
H2476       H  0.00346794  0.97121380  0.49479835     0.13300
C2477       C  0.27775718  0.98766740  0.50385199    -0.16300
C2478       C  0.26645827  0.98207100  0.48385941    -0.31400
H2479       H  0.31011261  0.98788405  0.50774207     0.12800
H2480       H  0.23443194  0.97601159  0.48048912     0.13300
C2481       C  0.09607700  0.81980706  0.65108184    -0.16300
C2482       C  0.11981664  0.85272893  0.64909580    -0.31400
H2483       H  0.06880677  0.81672405  0.64150364     0.12800
H2484       H  0.14561775  0.85745189  0.65949908     0.13300
C2485       C  0.01607534  0.78720495  0.53228965    -0.16300
C2486       C  0.01905192  0.74778783  0.52630912    -0.31400
H2487       H  0.98692825  0.79776569  0.53834210     0.12800
H2488       H  0.04795020  0.73672331  0.52020070     0.13300
C2489       C  0.96546816  0.86679093  0.59741943    -0.16300
C2490       C  0.93564174  0.89429077  0.60017333    -0.31400
H2491       H  0.96709821  0.83996252  0.60729642     0.12800
H2492       H  0.93192092  0.92014867  0.58982244     0.13300
C2493       C  0.21133231  0.08326973  0.60857401    -0.16300
C2494       C  0.20874299  0.08677329  0.62996639    -0.31400
H2495       H  0.23364621  0.10140504  0.60018948     0.12800
H2496       H  0.18509924  0.06993457  0.63813158     0.13300
loop_ 
_geom_bond_atom_site_label_1 
_geom_bond_atom_site_label_2 
_geom_bond_distance 
_geom_bond_site_symmetry_2 
_ccdc_geom_bond_type 
Zr1           O2   2.444       .  S
Zr1           O3   2.476       .  S
Zr1           O4   2.586       .  S
Zr1           O7   2.515       .  S
Zr1           O9   2.387   1_545  S
Zr1          O10   2.426   1_545  S
Zr1          O11   2.399   1_545  S
Zr1          O12   2.310   1_545  S
O2           H58   0.991       .  S
O2           H66   0.990       .  S
O3           C23   1.290   1_545  A
O4           C25   1.314       .  A
O5          Zr15   2.399       .  S
O5           C24   1.280   1_565  A
O6          Zr14   2.369   1_545  S
O6           C25   1.270       .  A
O7           C24   1.305       .  A
O8          Zr16   2.445       .  S
O8           C23   1.285       .  A
O9          Zr14   2.403       .  S
O9          Zr16   2.389       .  S
O10         Zr15   2.400       .  S
O10         Zr16   2.388       .  S
O10          H45   0.962       .  S
O11         Zr14   2.396       .  S
O11         Zr31   2.391       .  S
O11          H48   0.963   1_565  S
O12         Zr15   2.329       .  S
O12         Zr31   2.289       .  S
Zr13         O38   2.437       .  S
Zr13         O32   2.416       .  S
Zr13         O40   2.430       .  S
Zr13         O28   2.404       .  S
Zr13         O19   2.403       .  S
Zr13         O20   2.407       .  S
Zr13         O21   2.378       .  S
Zr13         O22   2.374       .  S
Zr14         O33   2.443       .  S
Zr14         O26   2.434       .  S
Zr14         O27   2.401       .  S
Zr14         O20   2.389       .  S
Zr14         O21   2.369       .  S
Zr15         O17   2.446       .  S
Zr15         O39   2.455       .  S
Zr15         O41   2.516       .  S
Zr15         O19   2.379       .  S
Zr15         O22   2.363       .  S
Zr16         O42   2.437       .  S
Zr16         O43   2.435       .  S
Zr16         O18   2.440       .  S
Zr16         O19   2.426       .  S
Zr16         O20   2.409       .  S
O17          H54   0.988       .  S
O18          H49   0.993       .  S
O18          H63   0.987       .  S
O20          H46   0.977       .  S
O21         Zr31   2.362       .  S
O22         Zr31   2.385       .  S
O22          H47   0.966       .  S
C23        C2477   1.481       .  S
C24        C2473   1.480       .  S
C25        C2493   1.514       .  S
O26          H62   0.990       .  S
O27          C29   1.277       .  A
O28          C29   1.283       .  A
C29        C2482   1.457       .  S
O30         Zr31   2.434   1_545  S
O30          H59   0.990       .  S
Zr31         O34   2.456       .  S
Zr31         O35   2.431   1_455  S
Zr31         O36   2.388       .  S
O32          C37   1.281       .  A
O33          H50   0.989       .  S
O33          H65   0.991   1_565  S
O34          H51   0.991       .  S
O35          H55   0.994       .  S
O35          H64   0.986   1_655  S
O36          C37   1.278       .  A
C37        C2489   1.450   1_455  S
O38          H57   0.990       .  S
O38          H61   0.989       .  S
O39          H53   0.991       .  S
O39          H60   0.990       .  S
O40          C44   1.282       .  A
O41          C44   1.296       .  A
O42          H52   0.991       .  S
O43          H56   0.990       .  S
C44        C2485   1.497       .  S
Zr67         O68   2.438       .  S
Zr67         O69   2.468       .  S
Zr67         O70   2.557       .  S
Zr67         O73   2.518       .  S
Zr67         O75   2.386       .  S
Zr67         O76   2.429       .  S
Zr67         O77   2.417       .  S
Zr67         O78   2.376       .  S
O68         H124   0.989       .  S
O68         H132   0.992       .  S
O69          C89   1.289       .  A
O70          C91   1.308       .  A
O71         Zr81   2.430       .  S
O71          C90   1.285       .  A
O72         Zr80   2.393       .  S
O72          C91   1.270       .  A
O73          C90   1.304       .  A
O74         Zr82   2.433       .  S
O74          C89   1.283       .  A
O75         Zr80   2.397       .  S
O75         Zr82   2.390       .  S
O76         Zr81   2.409       .  S
O76         Zr82   2.389       .  S
O76         H111   0.973       .  S
O77         Zr80   2.412       .  S
O77         Zr97   2.411       .  S
O77         H114   0.964       .  S
O78         Zr81   2.389       .  S
O78         Zr97   2.340       .  S
Zr79        O104   2.436       .  S
Zr79         O98   2.405       .  S
Zr79        O106   2.410       .  S
Zr79         O94   2.403       .  S
Zr79         O85   2.400       .  S
Zr79         O86   2.407       .  S
Zr79         O87   2.375       .  S
Zr79         O88   2.378       .  S
Zr80         O99   2.447       .  S
Zr80         O92   2.434       .  S
Zr80         O93   2.417       .  S
Zr80         O86   2.392       .  S
Zr80         O87   2.370       .  S
Zr81         O83   2.438       .  S
Zr81        O105   2.438       .  S
Zr81        O107   2.517       .  S
Zr81         O85   2.380       .  S
Zr81         O88   2.354       .  S
Zr82        O108   2.438       .  S
Zr82        O109   2.436       .  S
Zr82         O84   2.439       .  S
Zr82         O85   2.421       .  S
Zr82         O86   2.416       .  S
O83         H120   0.989       .  S
O84         H115   0.989   1_545  S
O84         H129   0.991       .  S
O86         H112   0.974       .  S
O87         Zr97   2.345       .  S
O88         Zr97   2.384       .  S
O88         H113   0.963       .  S
C89        C2457   1.482       .  S
C90        C2453   1.480       .  S
C91        C2494   1.512       .  S
O92         H128   0.990       .  S
O93          C95   1.278       .  A
O94          C95   1.281       .  A
C95        C2469   1.452       .  S
O96         Zr97   2.439       .  S
O96         H125   0.990       .  S
Zr97        O100   2.434       .  S
Zr97        O101   2.441       .  S
Zr97        O102   2.412       .  S
O98         C103   1.277       .  A
O99         H116   0.998       .  S
O99         H131   0.983       .  S
O100        H117   0.989       .  S
O101        H121   0.990       .  S
O101        H130   0.990       .  S
O102        C103   1.285       .  A
C103       C2465   1.454       .  S
O104        H123   0.990       .  S
O104        H127   0.990       .  S
O105        H119   0.986       .  S
O105        H126   0.994       .  S
O106        C110   1.280       .  A
O107        C110   1.297       .  A
O108        H118   0.990       .  S
O109        H122   0.990       .  S
C110       C2461   1.499       .  S
Zr133       O134   2.437       .  S
Zr133       O135   2.466       .  S
Zr133       O136   2.517       .  S
Zr133       O139   2.558       .  S
Zr133       O141   2.405       .  S
Zr133       O142   2.393       .  S
Zr133       O143   2.432       .  S
Zr133       O144   2.418       .  S
O134        H190   0.989       .  S
O134        H198   0.992       .  S
O135        C155   1.289       .  A
O136        C157   1.303       .  A
O137       Zr147   2.408       .  S
O137        C156   1.278       .  A
O138       Zr146   2.413       .  S
O138        C157   1.280       .  A
O139        C156   1.312       .  A
O140       Zr148   2.417       .  S
O140        C155   1.280       .  A
O141       Zr146   2.403       .  S
O141       Zr148   2.382       .  S
O142       Zr147   2.404       .  S
O142       Zr148   2.372       .  S
O142        H177   0.972       .  S
O143       Zr146   2.430       .  S
O143       Zr163   2.336       .  S
O143        H180   0.956       .  S
O144       Zr147   2.400       .  S
O144       Zr163   2.408       .  S
Zr145       O170   2.437       .  S
Zr145       O164   2.393       .  S
Zr145       O172   2.399       .  S
Zr145       O160   2.422       .  S
Zr145       O151   2.395       .  S
Zr145       O152   2.392       .  S
Zr145       O153   2.369       .  S
Zr145       O154   2.391       .  S
Zr146       O165   2.444       .  S
Zr146       O158   2.434       .  S
Zr146       O159   2.496       .  S
Zr146       O152   2.380       .  S
Zr146       O153   2.362       .  S
Zr147       O149   2.436       .  S
Zr147       O171   2.436       .  S
Zr147       O173   2.426       .  S
Zr147       O151   2.396       .  S
Zr147       O154   2.385       .  S
Zr148       O174   2.435       .  S
Zr148       O175   2.435       .  S
Zr148       O150   2.440       .  S
Zr148       O151   2.398       .  S
Zr148       O152   2.399       .  S
O149        H186   0.990       .  S
O150        H181   0.989       .  S
O150        H195   0.991       .  S
O152        H178   0.966       .  S
O153       Zr163   2.373       .  S
O154       Zr163   2.337       .  S
O154        H179   0.973       .  S
C155       C2438   1.480       .  S
C156       C2449   1.519       .  S
C157       C2433   1.487       .  S
O158        H194   0.991       .  S
O159        C161   1.294       .  A
O160        C161   1.280       .  A
C161       C2442   1.497       .  S
O162       Zr163   2.436       .  S
O162        H191   0.988       .  S
Zr163       O166   2.437       .  S
Zr163       O167   2.439       .  S
Zr163       O168   2.416       .  S
O164        C169   1.276       .  A
O165        H182   0.992       .  S
O165        H197   0.988       .  S
O166        H183   0.990       .  S
O167        H187   0.991       .  S
O167        H196   0.989       .  S
O168        C169   1.284       .  A
C169       C2445   1.458       .  S
O170        H189   0.990       .  S
O170        H193   0.990       .  S
O171        H185   0.990       .  S
O171        H192   0.990       .  S
O172        C176   1.282       .  A
O173        C176   1.282       .  A
O174        H184   0.991       .  S
O175        H188   0.990       .  S
C176       C2466   1.457       .  S
Zr199       O200   2.437       .  S
Zr199       O201   2.459       .  S
Zr199       O202   2.521       .  S
Zr199       O205   2.572       .  S
Zr199       O207   2.405       .  S
Zr199       O208   2.388       .  S
Zr199       O209   2.436       .  S
Zr199       O210   2.412       .  S
O200        H256   0.989       .  S
O200        H264   0.992       .  S
O201        C221   1.288       .  A
O202        C223   1.304       .  A
O203       Zr213   2.390       .  S
O203        C222   1.275       .  A
O204       Zr212   2.410       .  S
O204        C223   1.279       .  A
O205        C222   1.315       .  A
O206       Zr214   2.432       .  S
O206        C221   1.282       .  A
O207       Zr212   2.409       .  S
O207       Zr214   2.381       .  S
O208       Zr213   2.404       .  S
O208       Zr214   2.370       .  S
O208        H243   0.969       .  S
O209       Zr212   2.430       .  S
O209       Zr229   2.334       .  S
O209        H246   0.963       .  S
O210       Zr213   2.403       .  S
O210       Zr229   2.400       .  S
Zr211       O236   2.435       .  S
Zr211       O230   2.399       .  S
Zr211       O238   2.401       .  S
Zr211       O226   2.423       .  S
Zr211       O217   2.395       .  S
Zr211       O218   2.394       .  S
Zr211       O219   2.372       .  S
Zr211       O220   2.387       .  S
Zr212       O231   2.443       .  S
Zr212       O224   2.434       .  S
Zr212       O225   2.499       .  S
Zr212       O218   2.379       .  S
Zr212       O219   2.361       .  S
Zr213       O215   2.436       .  S
Zr213       O237   2.436       .  S
Zr213       O239   2.429       .  S
Zr213       O217   2.390       .  S
Zr213       O220   2.375       .  S
Zr214       O240   2.436       .  S
Zr214       O241   2.435       .  S
Zr214       O216   2.441       .  S
Zr214       O217   2.404       .  S
Zr214       O218   2.409       .  S
O215        H252   0.991       .  S
O216        H247   0.990       .  S
O216        H261   0.991       .  S
O218        H244   0.961       .  S
O219       Zr229   2.381       .  S
O220       Zr229   2.329       .  S
O220        H245   0.968       .  S
C221       C2421   1.481       .  S
C222       C2450   1.521       .  S
C223       C2418   1.487       .  S
O224        H260   0.991       .  S
O225        C227   1.295       .  A
O226        C227   1.280       .  A
C227       C2426   1.500       .  S
O228       Zr229   2.438       .  S
O228        H257   0.990       .  S
Zr229       O232   2.437       .  S
Zr229       O233   2.439       .  S
Zr229       O234   2.408       .  S
O230        C235   1.277       .  A
O231        H248   0.991       .  S
O231        H263   0.989       .  S
O232        H249   0.990       .  S
O233        H253   0.990       .  S
O233        H262   0.990       .  S
O234        C235   1.282       .  A
C235       C2481   1.457       .  S
O236        H255   0.990       .  S
O236        H259   0.989       .  S
O237        H251   0.990       .  S
O237        H258   0.990       .  S
O238        C242   1.283       .  A
O239        C242   1.283       .  A
O240        H250   0.989       .  S
O241        H254   0.989       .  S
C242       C2430   1.458       .  S
Zr265       O266   2.438   1_545  S
Zr265       O267   2.496       .  S
Zr265       O268   2.501   1_545  S
Zr265       O271   2.565   1_545  S
Zr265       O273   2.399       .  S
Zr265       O274   2.397       .  S
Zr265       O275   2.436       .  S
Zr265       O276   2.409       .  S
O266        H322   0.989       .  S
O266        H330   0.991       .  S
O267        C287   1.295       .  A
O268        C289   1.299   1_565  A
O269       Zr279   2.392   1_565  S
O269        C288   1.271       .  A
O270       Zr278   2.417       .  S
O270        C289   1.281       .  A
O271        C288   1.311       .  A
O272       Zr280   2.406       .  S
O272        C287   1.278       .  A
O273       Zr278   2.401       .  S
O273       Zr280   2.384       .  S
O274       Zr279   2.403       .  S
O274       Zr280   2.389       .  S
O274        H309   0.968       .  S
O275       Zr278   2.429       .  S
O275       Zr295   2.341       .  S
O275        H312   0.960       .  S
O276       Zr279   2.401       .  S
O276       Zr295   2.390       .  S
Zr277       O302   2.437       .  S
Zr277       O296   2.405       .  S
Zr277       O304   2.387       .  S
Zr277       O292   2.429       .  S
Zr277       O283   2.399       .  S
Zr277       O284   2.391       .  S
Zr277       O285   2.368       .  S
Zr277       O286   2.390       .  S
Zr278       O297   2.443       .  S
Zr278       O290   2.433       .  S
Zr278       O291   2.491       .  S
Zr278       O284   2.386       .  S
Zr278       O285   2.361       .  S
Zr279       O281   2.441       .  S
Zr279       O303   2.439       .  S
Zr279       O305   2.414       .  S
Zr279       O283   2.386       .  S
Zr279       O286   2.386       .  S
Zr280       O306   2.437       .  S
Zr280       O307   2.436       .  S
Zr280       O282   2.439       .  S
Zr280       O283   2.396       .  S
Zr280       O284   2.411       .  S
O281        H318   0.990       .  S
O282        H313   0.990       .  S
O282        H327   0.989       .  S
O284        H310   0.964       .  S
O285       Zr295   2.373       .  S
O286       Zr295   2.344       .  S
O286        H311   0.964       .  S
C287       C2405   1.488       .  S
C288       C2414   1.517       .  S
C289       C2402   1.482   1_545  S
O290        H326   0.991       .  S
O291        C293   1.293       .  A
O292        C293   1.281       .  A
C293       C2441   1.495       .  S
O294       Zr295   2.439   1_565  S
O294        H323   0.989       .  S
Zr295       O298   2.437       .  S
Zr295       O299   2.441       .  S
Zr295       O300   2.393       .  S
O296        C301   1.277       .  A
O297        H314   0.992       .  S
O297        H329   0.989       .  S
O298        H315   0.990       .  S
O299        H319   0.992       .  S
O299        H328   0.988       .  S
O300        C301   1.280       .  A
C301       C2470   1.454       .  S
O302        H321   0.990       .  S
O302        H325   0.990       .  S
O303        H317   0.991       .  S
O303        H324   0.990       .  S
O304        C308   1.281       .  A
O305        C308   1.277       .  A
O306        H316   0.990       .  S
O307        H320   0.990       .  S
C308       C2410   1.447       .  S
Zr331       O332   2.439       .  S
Zr331       O333   2.498       .  S
Zr331       O334   2.502       .  S
Zr331       O337   2.564       .  S
Zr331       O339   2.402       .  S
Zr331       O340   2.394       .  S
Zr331       O341   2.437       .  S
Zr331       O342   2.409       .  S
O332        H388   0.988       .  S
O332        H396   0.992       .  S
O333        C353   1.295       .  A
O334        C355   1.299       .  A
O335       Zr345   2.393       .  S
O335        C354   1.272       .  A
O336       Zr344   2.402       .  S
O336        C355   1.278       .  A
O337        C354   1.311       .  A
O338       Zr346   2.410       .  S
O338        C353   1.278       .  A
O339       Zr344   2.406       .  S
O339       Zr346   2.383       .  S
O340       Zr345   2.401       .  S
O340       Zr346   2.390       .  S
O340        H375   0.970       .  S
O341       Zr344   2.431       .  S
O341       Zr361   2.344       .  S
O341        H378   0.961       .  S
O342       Zr345   2.399       .  S
O342       Zr361   2.391       .  S
Zr343       O368   2.436       .  S
Zr343       O362   2.412       .  S
Zr343       O370   2.395       .  S
Zr343       O358   2.438       .  S
Zr343       O349   2.404       .  S
Zr343       O350   2.398       .  S
Zr343       O351   2.367       .  S
Zr343       O352   2.391       .  S
Zr344       O363   2.443       .  S
Zr344       O356   2.434       .  S
Zr344       O357   2.492       .  S
Zr344       O350   2.383       .  S
Zr344       O351   2.356       .  S
Zr345       O347   2.441       .  S
Zr345       O369   2.439       .  S
Zr345       O371   2.414       .  S
Zr345       O349   2.381       .  S
Zr345       O352   2.389       .  S
Zr346       O372   2.437   1_565  S
Zr346       O373   2.436       .  S
Zr346       O348   2.439       .  S
Zr346       O349   2.400       .  S
Zr346       O350   2.413       .  S
O347        H384   0.990       .  S
O348        H379   0.988       .  S
O348        H393   0.991       .  S
O350        H376   0.963       .  S
O351       Zr361   2.372       .  S
O352       Zr361   2.337       .  S
O352        H377   0.968       .  S
C353       C2394   1.493       .  S
C354       C2413   1.517       .  S
C355       C2389   1.476       .  S
O356        H392   0.991       .  S
O357        C359   1.293       .  A
O358        C359   1.283       .  A
C359       C2425   1.499       .  S
O360       Zr361   2.438       .  S
O360        H389   0.989       .  S
Zr361       O364   2.437       .  S
Zr361       O365   2.442       .  S
Zr361       O366   2.401       .  S
O362        C367   1.279       .  A
O363        H380   0.991       .  S
O363        H395   0.990       .  S
O364        H381   0.990       .  S
O365        H385   0.992       .  S
O365        H394   0.988       .  S
O366        C367   1.282       .  A
C367       C2397   1.458       .  S
O368        H387   0.990       .  S
O368        H391   0.990       .  S
O369        H383   0.990       .  S
O369        H390   0.990   1_565  S
O370        C374   1.282       .  A
O371        C374   1.278       .  A
O372        H382   0.990       .  S
O373        H386   0.989       .  S
C374       C2490   1.445       .  S
Zr397       O398   2.443       .  S
Zr397       O399   2.493       .  S
Zr397       O400   2.573       .  S
Zr397       O403   2.520       .  S
Zr397       O405   2.395       .  S
Zr397       O406   2.422       .  S
Zr397       O407   2.414       .  S
Zr397       O408   2.318       .  S
O398        H454   0.990       .  S
O398        H462   0.991       .  S
O399        C419   1.293       .  A
O400        C421   1.311       .  A
O401       Zr411   2.394       .  S
O401        C420   1.279       .  A
O402       Zr410   2.408       .  S
O402        C421   1.274       .  A
O403        C420   1.304       .  A
O404       Zr412   2.442       .  S
O404        C419   1.284       .  A
O405       Zr410   2.403       .  S
O405       Zr412   2.388       .  S
O406       Zr411   2.397       .  S
O406       Zr412   2.391       .  S
O406        H441   0.954       .  S
O407       Zr410   2.416       .  S
O407       Zr427   2.398       .  S
O407        H444   0.960       .  S
O408       Zr411   2.337       .  S
O408       Zr427   2.297       .  S
Zr409       O434   2.436       .  S
Zr409       O428   2.420       .  S
Zr409       O436   2.428       .  S
Zr409       O424   2.397       .  S
Zr409       O415   2.403       .  S
Zr409       O416   2.416       .  S
Zr409       O417   2.381       .  S
Zr409       O418   2.375       .  S
Zr410       O429   2.447       .  S
Zr410       O422   2.435       .  S
Zr410       O423   2.440       .  S
Zr410       O416   2.396       .  S
Zr410       O417   2.370       .  S
Zr411       O413   2.449       .  S
Zr411       O435   2.455       .  S
Zr411       O437   2.513       .  S
Zr411       O415   2.382       .  S
Zr411       O418   2.350       .  S
Zr412       O438   2.437       .  S
Zr412       O439   2.435       .  S
Zr412       O414   2.438       .  S
Zr412       O415   2.428       .  S
Zr412       O416   2.416       .  S
O413        H450   0.990       .  S
O414        H445   0.991       .  S
O414        H459   0.989       .  S
O416        H442   0.969       .  S
O417       Zr427   2.344       .  S
O418       Zr427   2.382       .  S
O418        H443   0.954   1_655  S
C419       C2382   1.490       .  S
C420       C2377   1.486   1_655  S
C421       C2385   1.518       .  S
O422        H458   0.989       .  S
O423        C425   1.283       .  A
O424        C425   1.281       .  A
C425       C2398   1.458       .  S
O426       Zr427   2.436   1_455  S
O426        H455   0.989       .  S
Zr427       O430   2.453   1_655  S
Zr427       O431   2.432   1_655  S
Zr427       O432   2.406   1_655  S
O428        C433   1.280   1_655  A
O429        H446   0.988       .  S
O429        H461   0.992       .  S
O430        H447   0.991       .  S
O431        H451   0.992       .  S
O431        H460   0.988       .  S
O432        C433   1.283       .  A
C433       C2429   1.457       .  S
O434        H453   0.989       .  S
O434        H457   0.992       .  S
O435        H449   0.991       .  S
O435        H456   0.990       .  S
O436        C440   1.283       .  A
O437        C440   1.296       .  A
O438        H448   0.991       .  S
O439        H452   0.990       .  S
C440       C2486   1.506   1_655  S
Zr463       O464   2.443       .  S
Zr463       O465   2.460       .  S
Zr463       O466   2.597       .  S
Zr463       O469   2.509       .  S
Zr463       O471   2.381       .  S
Zr463       O472   2.429       .  S
Zr463       O473   2.394       .  S
Zr463       O474   2.318       .  S
O464        H520   0.991       .  S
O464        H528   0.990       .  S
O465        C485   1.287       .  A
O466        C487   1.316       .  A
O467       Zr477   2.402       .  S
O467        C486   1.281       .  A
O468       Zr476   2.361       .  S
O468        C487   1.268       .  A
O469        C486   1.304       .  A
O470       Zr478   2.448       .  S
O470        C485   1.286       .  A
O471       Zr476   2.399       .  S
O471       Zr478   2.386       .  S
O472       Zr477   2.401       .  S
O472       Zr478   2.388       .  S
O472        H507   0.970       .  S
O473       Zr476   2.396       .  S
O473       Zr493   2.400       .  S
O473        H510   0.963       .  S
O474       Zr477   2.331       .  S
O474       Zr493   2.286       .  S
Zr475       O500   2.438       .  S
Zr475       O494   2.418       .  S
Zr475       O502   2.417       .  S
Zr475       O490   2.418       .  S
Zr475       O481   2.402       .  S
Zr475       O482   2.400       .  S
Zr475       O483   2.374       .  S
Zr475       O484   2.377       .  S
Zr476       O495   2.442       .  S
Zr476       O488   2.434       .  S
Zr476       O489   2.386       .  S
Zr476       O482   2.390       .  S
Zr476       O483   2.374       .  S
Zr477       O479   2.447       .  S
Zr477       O501   2.452       .  S
Zr477       O503   2.523       .  S
Zr477       O481   2.377       .  S
Zr477       O484   2.359       .  S
Zr478       O504   2.438       .  S
Zr478       O505   2.435       .  S
Zr478       O480   2.439       .  S
Zr478       O481   2.418       .  S
Zr478       O482   2.412       .  S
O479        H516   0.988       .  S
O480        H511   0.994       .  S
O480        H525   0.985       .  S
O482        H508   0.975       .  S
O483       Zr493   2.362       .  S
O484       Zr493   2.397       .  S
O484        H509   0.962       .  S
C485       C2374   1.477       .  S
C486       C2370   1.479       .  S
C487       C2386   1.520       .  S
O488        H524   0.990       .  S
O489        C491   1.273       .  A
O490        C491   1.285       .  A
C491       C2446   1.458       .  S
O492       Zr493   2.435       .  S
O492        H521   0.991       .  S
Zr493       O496   2.454       .  S
Zr493       O497   2.433       .  S
Zr493       O498   2.391       .  S
O494        C499   1.281       .  A
O495        H512   0.993       .  S
O495        H527   0.988       .  S
O496        H513   0.992       .  S
O497        H517   0.993       .  S
O497        H526   0.987       .  S
O498        C499   1.278       .  A
C499       C2409   1.450       .  S
O500        H519   0.991       .  S
O500        H523   0.989       .  S
O501        H515   0.991       .  S
O501        H522   0.990       .  S
O502        C506   1.282       .  A
O503        C506   1.296       .  A
O504        H514   0.991       .  S
O505        H518   0.989       .  S
C506       C2462   1.502       .  S
Zr529       O530   2.436       .  S
Zr529       O531   2.478       .  S
Zr529       O532   2.568       .  S
Zr529       O535   2.532       .  S
Zr529       O537   2.390       .  S
Zr529       O538   2.428       .  S
Zr529       O539   2.417       .  S
Zr529       O540   2.375       .  S
O530        H586   0.989       .  S
O530        H594   0.992       .  S
O531        C551   1.291       .  A
O532        C553   1.311       .  A
O533       Zr543   2.416       .  S
O533        C552   1.282       .  A
O534       Zr542   2.407       .  S
O534        C553   1.273       .  A
O535        C552   1.307       .  A
O536       Zr544   2.437       .  S
O536        C551   1.283       .  A
O537       Zr542   2.400       .  S
O537       Zr544   2.390       .  S
O538       Zr543   2.406       .  S
O538       Zr544   2.391       .  S
O538        H573   0.961       .  S
O539       Zr542   2.414       .  S
O539       Zr559   2.403       .  S
O539        H576   0.962       .  S
O540       Zr543   2.396       .  S
O540       Zr559   2.347       .  S
Zr541       O566   2.437       .  S
Zr541       O560   2.416       .  S
Zr541       O568   2.419       .  S
Zr541       O556   2.399       .  S
Zr541       O547   2.400       .  S
Zr541       O548   2.413       .  S
Zr541       O549   2.377       .  S
Zr541       O550   2.374       .  S
Zr542       O561   2.447       .  S
Zr542       O554   2.435       .  S
Zr542       O555   2.430       .  S
Zr542       O548   2.396       .  S
Zr542       O549   2.374       .  S
Zr543       O545   2.439       .  S
Zr543       O567   2.438       .  S
Zr543       O569   2.511       .  S
Zr543       O547   2.379       .  S
Zr543       O550   2.354       .  S
Zr544       O570   2.438       .  S
Zr544       O571   2.437       .  S
Zr544       O546   2.439       .  S
Zr544       O547   2.425       .  S
Zr544       O548   2.415       .  S
O545        H582   0.991       .  S
O546        H577   0.991       .  S
O546        H591   0.990       .  S
O548        H574   0.974       .  S
O549       Zr559   2.343       .  S
O550       Zr559   2.383       .  S
O550        H575   0.965       .  S
C551       C2349   1.486       .  S
C552       C2345   1.485       .  S
C553       C2366   1.521       .  S
O554        H590   0.990       .  S
O555        C557   1.281       .  A
O556        C557   1.281       .  A
C557       C2357   1.454       .  S
O558       Zr559   2.435       .  S
O558        H587   0.990       .  S
Zr559       O562   2.434       .  S
Zr559       O563   2.437       .  S
Zr559       O564   2.410       .  S
O560        C565   1.279       .  A
O561        H578   0.985       .  S
O561        H593   0.996       .  S
O562        H579   0.990       .  S
O563        H583   0.991       .  S
O563        H592   0.989       .  S
O564        C565   1.285       .  A
C565       C2361   1.457       .  S
O566        H585   0.990       .  S
O566        H589   0.990       .  S
O567        H581   0.989       .  S
O567        H588   0.992       .  S
O568        C572   1.283       .  A
O569        C572   1.296       .  A
O570        H580   0.990       .  S
O571        H584   0.988       .  S
C572       C2353   1.512   1_655  S
Zr595       O596   2.435       .  S
Zr595       O597   2.482       .  S
Zr595       O598   2.593       .  S
Zr595       O601   2.544       .  S
Zr595       O603   2.393       .  S
Zr595       O604   2.432       .  S
Zr595       O605   2.410       .  S
Zr595       O606   2.373       .  S
O596        H652   0.989       .  S
O596        H660   0.991       .  S
O597        C617   1.292       .  A
O598        C619   1.317       .  A
O599       Zr609   2.402       .  S
O599        C618   1.279       .  A
O600       Zr608   2.387       .  S
O600        C619   1.272       .  A
O601        C618   1.309       .  A
O602       Zr610   2.424       .  S
O602        C617   1.282       .  A
O603       Zr608   2.395       .  S
O603       Zr610   2.391       .  S
O604       Zr609   2.396       .  S
O604       Zr610   2.392       .  S
O604        H639   0.971       .  S
O605       Zr608   2.417       .  S
O605       Zr625   2.386       .  S
O605        H642   0.965       .  S
O606       Zr609   2.394       .  S
O606       Zr625   2.336       .  S
Zr607       O632   2.435       .  S
Zr607       O626   2.415       .  S
Zr607       O634   2.426       .  S
Zr607       O622   2.399       .  S
Zr607       O613   2.397       .  S
Zr607       O614   2.409       .  S
Zr607       O615   2.383       .  S
Zr607       O616   2.377       .  S
Zr608       O627   2.448       .  S
Zr608       O620   2.435       .  S
Zr608       O621   2.420       .  S
Zr608       O614   2.383       .  S
Zr608       O615   2.376       .  S
Zr609       O611   2.440   1_554  S
Zr609       O633   2.436   1_554  S
Zr609       O635   2.489       .  S
Zr609       O613   2.367       .  S
Zr609       O616   2.360       .  S
Zr610       O636   2.435       .  S
Zr610       O637   2.437       .  S
Zr610       O612   2.438       .  S
Zr610       O613   2.415       .  S
Zr610       O614   2.407       .  S
O611        H648   0.991       .  S
O612        H643   0.991       .  S
O612        H657   0.990       .  S
O614        H640   0.969       .  S
O615       Zr625   2.353       .  S
O616       Zr625   2.387       .  S
O616        H641   0.964       .  S
C617       C2329   1.478   1_554  S
C618       C2325   1.485       .  S
C619       C2365   1.522       .  S
O620        H656   0.990       .  S
O621        C623   1.278       .  A
O622        C623   1.282       .  A
C623       C2341   1.456       .  S
O624       Zr625   2.435       .  S
O624        H653   0.990       .  S
Zr625       O628   2.434       .  S
Zr625       O629   2.438       .  S
Zr625       O630   2.373       .  S
O626        C631   1.280       .  A
O627        H644   0.983       .  S
O627        H659   0.999       .  S
O628        H645   0.990       .  S
O629        H649   0.988       .  S
O629        H658   0.991       .  S
O630        C631   1.277       .  A
C631       C2337   1.448       .  S
O632        H651   0.992       .  S
O632        H655   0.988       .  S
O633        H647   0.987       .  S
O633        H654   0.993       .  S
O634        C638   1.282       .  A
O635        C638   1.291       .  A
O636        H646   0.987       .  S
O637        H650   0.990       .  S
C638       C2333   1.488       .  S
Zr661       O662   2.437   1_565  S
Zr661       O663   2.480       .  S
Zr661       O664   2.532   1_565  S
Zr661       O667   2.561   1_565  S
Zr661       O669   2.400       .  S
Zr661       O670   2.398       .  S
Zr661       O671   2.429       .  S
Zr661       O672   2.427       .  S
O662        H718   0.989       .  S
O662        H726   0.991       .  S
O663        C683   1.291       .  A
O664        C685   1.306   1_545  A
O665       Zr675   2.415       .  S
O665        C684   1.280   1_565  A
O666       Zr674   2.406       .  S
O666        C685   1.278       .  A
O667        C684   1.313       .  A
O668       Zr676   2.413       .  S
O668        C683   1.281       .  A
O669       Zr674   2.405       .  S
O669       Zr676   2.385       .  S
O670       Zr675   2.408       .  S
O670       Zr676   2.370       .  S
O670        H705   0.966       .  S
O671       Zr674   2.430       .  S
O671       Zr691   2.342   1_655  S
O671        H708   0.954       .  S
O672       Zr675   2.403       .  S
O672       Zr691   2.408   1_655  S
Zr673       O698   2.438       .  S
Zr673       O692   2.399   1_655  S
Zr673       O700   2.392       .  S
Zr673       O688   2.425       .  S
Zr673       O679   2.400       .  S
Zr673       O680   2.390       .  S
Zr673       O681   2.365       .  S
Zr673       O682   2.394       .  S
Zr674       O693   2.444   1_554  S
Zr674       O686   2.434       .  S
Zr674       O687   2.480       .  S
Zr674       O680   2.384       .  S
Zr674       O681   2.360       .  S
Zr675       O677   2.435       .  S
Zr675       O699   2.436       .  S
Zr675       O701   2.438       .  S
Zr675       O679   2.396       .  S
Zr675       O682   2.384       .  S
Zr676       O702   2.436       .  S
Zr676       O703   2.436       .  S
Zr676       O678   2.437       .  S
Zr676       O679   2.394       .  S
Zr676       O680   2.400       .  S
O677        H714   0.990       .  S
O678        H709   0.991       .  S
O678        H723   0.989       .  S
O680        H706   0.963       .  S
O681       Zr691   2.370   1_655  S
O682       Zr691   2.341   1_655  S
O682        H707   0.964       .  S
C683       C2309   1.487       .  S
C684       C2317   1.522       .  S
C685       C2305   1.489   1_564  S
O686        H722   0.991       .  S
O687        C689   1.290       .  A
O688        C689   1.280       .  A
C689       C2321   1.489   1_655  S
O690       Zr691   2.435   1_545  S
O690        H719   0.990       .  S
Zr691       O694   2.440       .  S
Zr691       O695   2.439       .  S
Zr691       O696   2.417       .  S
O692        C697   1.277       .  A
O693        H710   0.989       .  S
O693        H725   0.991   1_655  S
O694        H711   0.990       .  S
O695        H715   0.990       .  S
O695        H724   0.989       .  S
O696        C697   1.284       .  A
C697       C2313   1.460       .  S
O698        H717   0.989       .  S
O698        H721   0.991       .  S
O699        H713   0.992       .  S
O699        H720   0.988       .  S
O700        C704   1.282       .  A
O701        C704   1.284       .  A
O702        H712   0.990       .  S
O703        H716   0.990       .  S
C704       C2362   1.460       .  S
Zr727       O728   2.437       .  S
Zr727       O729   2.480       .  S
Zr727       O730   2.521       .  S
Zr727       O733   2.567       .  S
Zr727       O735   2.403       .  S
Zr727       O736   2.392       .  S
Zr727       O737   2.439       .  S
Zr727       O738   2.422       .  S
O728        H784   0.988       .  S
O728        H792   0.992       .  S
O729        C749   1.292       .  A
O730        C751   1.304       .  A
O731       Zr741   2.400       .  S
O731        C750   1.277       .  A
O732       Zr740   2.411       .  S
O732        C751   1.278       .  A
O733        C750   1.314       .  A
O734       Zr742   2.410       .  S
O734        C749   1.279       .  A
O735       Zr740   2.399       .  S
O735       Zr742   2.385       .  S
O736       Zr741   2.399       .  S
O736       Zr742   2.371       .  S
O736        H771   0.972       .  S
O737       Zr740   2.426       .  S
O737       Zr757   2.341       .  S
O737        H774   0.959       .  S
O738       Zr741   2.399       .  S
O738       Zr757   2.410       .  S
Zr739       O764   2.438       .  S
Zr739       O758   2.395       .  S
Zr739       O766   2.403       .  S
Zr739       O754   2.436       .  S
Zr739       O745   2.398       .  S
Zr739       O746   2.391       .  S
Zr739       O747   2.369       .  S
Zr739       O748   2.389       .  S
Zr740       O759   2.445       .  S
Zr740       O752   2.434       .  S
Zr740       O753   2.473       .  S
Zr740       O746   2.381       .  S
Zr740       O747   2.371       .  S
Zr741       O743   2.436       .  S
Zr741       O765   2.436       .  S
Zr741       O767   2.424       .  S
Zr741       O745   2.393       .  S
Zr741       O748   2.378       .  S
Zr742       O768   2.435       .  S
Zr742       O769   2.435       .  S
Zr742       O744   2.439       .  S
Zr742       O745   2.392       .  S
Zr742       O746   2.404       .  S
O743        H780   0.991       .  S
O744        H775   0.992       .  S
O744        H789   0.988       .  S
O746        H772   0.964       .  S
O747       Zr757   2.375       .  S
O748       Zr757   2.336       .  S
O748        H773   0.956       .  S
C749       C2293   1.484       .  S
C750       C2318   1.523       .  S
C751       C2289   1.488       .  S
O752        H788   0.991       .  S
O753        C755   1.289       .  A
O754        C755   1.283       .  A
C755       C2297   1.490       .  S
O756       Zr757   2.439       .  S
O756        H785   0.989       .  S
Zr757       O760   2.440       .  S
Zr757       O761   2.441       .  S
Zr757       O762   2.415       .  S
O758        C763   1.277       .  A
O759        H776   0.989       .  S
O759        H791   0.992       .  S
O760        H777   0.989       .  S
O761        H781   0.989       .  S
O761        H790   0.990       .  S
O762        C763   1.283       .  A
C763       C2342   1.458       .  S
O764        H783   0.991       .  S
O764        H787   0.990       .  S
O765        H779   0.990       .  S
O765        H786   0.990       .  S
O766        C770   1.284       .  A
O767        C770   1.282       .  A
O768        H778   0.989   1_545  S
O769        H782   0.990       .  S
C770       C2302   1.459       .  S
Zr793       O794   2.443       .  S
Zr793       O795   2.462       .  S
Zr793       O796   2.595       .  S
Zr793       O799   2.520       .  S
Zr793       O801   2.384       .  S
Zr793       O802   2.429       .  S
Zr793       O803   2.393       .  S
Zr793       O804   2.314       .  S
O794        H850   0.990       .  S
O794        H858   0.991       .  S
O795        C815   1.288       .  A
O796        C817   1.316       .  A
O797       Zr807   2.399       .  S
O797        C816   1.280       .  A
O798       Zr806   2.357       .  S
O798        C817   1.268       .  A
O799        C816   1.305       .  A
O800       Zr808   2.446       .  S
O800        C815   1.286       .  A
O801       Zr806   2.397       .  S
O801       Zr808   2.386       .  S
O802       Zr807   2.402       .  S
O802       Zr808   2.387       .  S
O802        H837   0.965       .  S
O803       Zr806   2.395       .  S
O803       Zr823   2.392       .  S
O803        H840   0.963       .  S
O804       Zr807   2.338       .  S
O804       Zr823   2.288       .  S
Zr805       O830   2.436       .  S
Zr805       O824   2.425       .  S
Zr805       O832   2.405       .  S
Zr805       O820   2.421       .  S
Zr805       O811   2.407       .  S
Zr805       O812   2.402       .  S
Zr805       O813   2.368       .  S
Zr805       O814   2.374       .  S
Zr806       O825   2.443       .  S
Zr806       O818   2.437       .  S
Zr806       O819   2.393       .  S
Zr806       O812   2.386       .  S
Zr806       O813   2.368       .  S
Zr807       O809   2.447       .  S
Zr807       O831   2.452       .  S
Zr807       O833   2.535       .  S
Zr807       O811   2.380       .  S
Zr807       O814   2.348       .  S
Zr808       O834   2.435       .  S
Zr808       O835   2.436       .  S
Zr808       O810   2.438   1_565  S
Zr808       O811   2.423       .  S
Zr808       O812   2.416       .  S
O809        H846   0.989       .  S
O810        H841   0.992       .  S
O810        H855   0.989       .  S
O812        H838   0.969       .  S
O813       Zr823   2.360       .  S
O814       Zr823   2.391       .  S
O814        H839   0.958       .  S
C815       C2277   1.477   1_565  S
C816       C2273   1.481       .  S
C817       C2286   1.515       .  S
O818        H854   0.990       .  S
O819        C821   1.274       .  A
O820        C821   1.286       .  A
C821       C2314   1.461       .  S
O822       Zr823   2.434       .  S
O822        H851   0.990       .  S
Zr823       O826   2.456       .  S
Zr823       O827   2.430       .  S
Zr823       O828   2.394       .  S
O824        C829   1.283       .  A
O825        H842   0.988       .  S
O825        H857   0.992       .  S
O826        H843   0.991       .  S
O827        H847   0.992       .  S
O827        H856   0.988       .  S
O828        C829   1.280       .  A
C829       C2281   1.452       .  S
O830        H849   0.989       .  S
O830        H853   0.991       .  S
O831        H845   0.991       .  S
O831        H852   0.990       .  S
O832        C836   1.280       .  A
O833        C836   1.298       .  A
O834        H844   0.990       .  S
O835        H848   0.991       .  S
C836       C2354   1.499       .  S
Zr859       O860   2.443   1_545  S
Zr859       O861   2.478       .  S
Zr859       O862   2.575   1_545  S
Zr859       O865   2.511       .  S
Zr859       O867   2.385       .  S
Zr859       O868   2.421       .  S
Zr859       O869   2.404       .  S
Zr859       O870   2.312       .  S
O860        H916   0.989       .  S
O860        H924   0.992       .  S
O861        C881   1.291       .  A
O862        C883   1.312       .  A
O863       Zr873   2.397       .  S
O863        C882   1.280       .  A
O864       Zr872   2.385       .  S
O864        C883   1.272   1_545  A
O865        C882   1.303       .  A
O866       Zr874   2.453       .  S
O866        C881   1.288       .  A
O867       Zr872   2.402       .  S
O867       Zr874   2.386       .  S
O868       Zr873   2.390       .  S
O868       Zr874   2.388       .  S
O868        H903   0.968       .  S
O869       Zr872   2.395       .  S
O869       Zr889   2.407       .  S
O869        H906   0.965       .  S
O870       Zr873   2.325       .  S
O870       Zr889   2.298       .  S
Zr871       O896   2.435       .  S
Zr871       O890   2.416       .  S
Zr871       O898   2.426       .  S
Zr871       O886   2.411       .  S
Zr871       O877   2.404       .  S
Zr871       O878   2.409       .  S
Zr871       O879   2.377       .  S
Zr871       O880   2.374       .  S
Zr872       O891   2.442       .  S
Zr872       O884   2.435       .  S
Zr872       O885   2.397       .  S
Zr872       O878   2.398       .  S
Zr872       O879   2.374       .  S
Zr873       O875   2.447   1_554  S
Zr873       O897   2.454   1_554  S
Zr873       O899   2.500       .  S
Zr873       O877   2.382       .  S
Zr873       O880   2.354       .  S
Zr874       O900   2.437       .  S
Zr874       O901   2.435       .  S
Zr874       O876   2.435       .  S
Zr874       O877   2.424       .  S
Zr874       O878   2.415       .  S
O875        H912   0.986       .  S
O876        H907   0.989       .  S
O876        H921   0.990       .  S
O878        H904   0.964       .  S
O879       Zr889   2.348       .  S
O880       Zr889   2.382       .  S
O880        H905   0.958       .  S
C881       C2266   1.487       .  S
C882       C2261   1.480       .  S
C883       C2285   1.514       .  S
O884        H920   0.990       .  S
O885        C887   1.276       .  A
O886        C887   1.284       .  A
C887       C2269   1.453       .  S
O888       Zr889   2.434       .  S
O888        H917   0.987   1_545  S
Zr889       O892   2.454       .  S
Zr889       O893   2.431       .  S
Zr889       O894   2.425       .  S
O890        C895   1.280       .  A
O891        H908   0.986       .  S
O891        H923   0.994       .  S
O892        H909   0.989       .  S
O893        H913   0.991       .  S
O893        H922   0.988       .  S
O894        C895   1.286       .  A
C895       C2301   1.460       .  S
O896        H915   0.990       .  S
O896        H919   0.989       .  S
O897        H911   0.990       .  S
O897        H918   0.991       .  S
O898        C902   1.283       .  A
O899        C902   1.293       .  A
O900        H910   0.991       .  S
O901        H914   0.990       .  S
C902       C2334   1.496       .  S
Zr925       O926   2.437       .  S
Zr925       O927   2.495       .  S
Zr925       O928   2.518       .  S
Zr925       O931   2.565       .  S
Zr925       O933   2.401       .  S
Zr925       O934   2.396       .  S
Zr925       O935   2.429       .  S
Zr925       O936   2.413       .  S
O926        H982   0.989       .  S
O926        H990   0.991       .  S
O927        C947   1.295       .  A
O928        C949   1.303       .  A
O929       Zr939   2.391       .  S
O929        C948   1.272       .  A
O930       Zr938   2.407       .  S
O930        C949   1.278       .  A
O931        C948   1.311       .  A
O932       Zr940   2.412       .  S
O932        C947   1.279       .  A
O933       Zr938   2.407       .  S
O933       Zr940   2.388       .  S
O934       Zr939   2.405       .  S
O934       Zr940   2.388       .  S
O934        H969   0.968       .  S
O935       Zr938   2.430       .  S
O935       Zr955   2.335       .  S
O935        H972   0.962       .  S
O936       Zr939   2.405       .  S
O936       Zr955   2.395       .  S
Zr937       O962   2.435       .  S
Zr937       O956   2.395       .  S
Zr937       O964   2.387       .  S
Zr937       O952   2.428       .  S
Zr937       O943   2.399       .  S
Zr937       O944   2.388       .  S
Zr937       O945   2.368       .  S
Zr937       O946   2.391       .  S
Zr938       O957   2.444       .  S
Zr938       O950   2.434       .  S
Zr938       O951   2.484       .  S
Zr938       O944   2.388       .  S
Zr938       O945   2.356       .  S
Zr939       O941   2.442       .  S
Zr939       O963   2.439       .  S
Zr939       O965   2.431       .  S
Zr939       O943   2.384       .  S
Zr939       O946   2.385       .  S
Zr940       O966   2.437       .  S
Zr940       O967   2.438       .  S
Zr940       O942   2.439       .  S
Zr940       O943   2.403       .  S
Zr940       O944   2.409       .  S
O941        H978   0.990       .  S
O942        H973   0.989       .  S
O942        H987   0.990       .  S
O944        H970   0.962       .  S
O945       Zr955   2.366       .  S
O946       Zr955   2.332       .  S
O946        H971   0.960       .  S
C947       C2253   1.490       .  S
C948       C2257   1.518       .  S
C949       C2249   1.482       .  S
O950        H986   0.991       .  S
O951        C953   1.291       .  A
O952        C953   1.281       .  A
C953       C2298   1.492       .  S
O954       Zr955   2.434       .  S
O954        H983   0.990       .  S
Zr955       O958   2.437       .  S
Zr955       O959   2.439       .  S
Zr955       O960   2.403       .  S
O956        C961   1.275       .  A
O957        H974   0.990       .  S
O957        H989   0.990       .  S
O958        H975   0.990       .  S
O959        H979   0.991       .  S
O959        H988   0.990       .  S
O960        C961   1.283       .  A
C961       C2270   1.453       .  S
O962        H981   0.990       .  S
O962        H985   0.990       .  S
O963        H977   0.992       .  S
O963        H984   0.988       .  S
O964        C968   1.280       .  A
O965        C968   1.281       .  A
O966        H976   0.991       .  S
O967        H980   0.990       .  S
C968       C2338   1.447       .  S
Zr991       O992   2.437       .  S
Zr991       O993   2.486       .  S
Zr991       O994   2.512       .  S
Zr991       O997   2.566       .  S
Zr991       O999   2.405       .  S
Zr991      O1000   2.398       .  S
Zr991      O1001   2.438       .  S
Zr991      O1002   2.408       .  S
O992       H1048   0.989       .  S
O992       H1056   0.991       .  S
O993       C1013   1.292       .  A
O994       C1015   1.302       .  A
O995      Zr1005   2.392       .  S
O995       C1014   1.270       .  A
O996      Zr1004   2.394       .  S
O996       C1015   1.276       .  A
O997       C1014   1.310       .  A
O998      Zr1006   2.415       .  S
O998       C1013   1.281       .  A
O999      Zr1004   2.402       .  S
O999      Zr1006   2.381       .  S
O1000     Zr1005   2.407       .  S
O1000     Zr1006   2.386       .  S
O1000      H1035   0.973       .  S
O1001     Zr1004   2.430       .  S
O1001     Zr1021   2.344       .  S
O1001      H1038   0.959       .  S
O1002     Zr1005   2.399       .  S
O1002     Zr1021   2.388       .  S
Zr1003     O1028   2.438       .  S
Zr1003     O1022   2.410       .  S
Zr1003     O1030   2.381       .  S
Zr1003     O1018   2.428       .  S
Zr1003     O1009   2.401       .  S
Zr1003     O1010   2.389       .  S
Zr1003     O1011   2.365       .  S
Zr1003     O1012   2.390       .  S
Zr1004     O1023   2.444   1_554  S
Zr1004     O1016   2.436   1_554  S
Zr1004     O1017   2.479       .  S
Zr1004     O1010   2.379       .  S
Zr1004     O1011   2.361       .  S
Zr1005     O1007   2.442       .  S
Zr1005     O1029   2.440       .  S
Zr1005     O1031   2.418       .  S
Zr1005     O1009   2.389       .  S
Zr1005     O1012   2.387       .  S
Zr1006     O1032   2.437       .  S
Zr1006     O1033   2.436       .  S
Zr1006     O1008   2.440       .  S
Zr1006     O1009   2.398       .  S
Zr1006     O1010   2.408       .  S
O1007      H1044   0.990       .  S
O1008      H1039   0.993       .  S
O1008      H1053   0.988       .  S
O1010      H1036   0.969       .  S
O1011     Zr1021   2.373       .  S
O1012     Zr1021   2.348       .  S
O1012      H1037   0.965       .  S
C1013      C2245   1.491   1_554  S
C1014      C2258   1.518       .  S
C1015      C2241   1.481   1_554  S
O1016      H1052   0.991       .  S
O1017      C1019   1.289       .  A
O1018      C1019   1.280       .  A
C1019      C2322   1.489       .  S
O1020     Zr1021   2.435       .  S
O1020      H1049   0.990       .  S
Zr1021     O1024   2.437       .  S
Zr1021     O1025   2.438       .  S
Zr1021     O1026   2.397       .  S
O1022      C1027   1.278       .  A
O1023      H1040   0.989       .  S
O1023      H1055   0.992       .  S
O1024      H1041   0.990   1_455  S
O1025      H1045   0.992       .  S
O1025      H1054   0.988       .  S
O1026      C1027   1.280       .  A
C1027      C2358   1.456   1_455  S
O1028      H1047   0.990       .  S
O1028      H1051   0.990       .  S
O1029      H1043   0.991       .  S
O1029      H1050   0.989       .  S
O1030      C1034   1.280       .  A
O1031      C1034   1.278       .  A
O1032      H1042   0.990       .  S
O1033      H1046   0.990       .  S
C1034      C2282   1.448       .  S
Zr1057     O1058   2.436       .  S
Zr1057     O1059   2.480       .  S
Zr1057     O1060   2.576       .  S
Zr1057     O1063   2.531       .  S
Zr1057     O1065   2.389       .  S
Zr1057     O1066   2.431       .  S
Zr1057     O1067   2.416       .  S
Zr1057     O1068   2.379       .  S
O1058      H1114   0.989       .  S
O1058      H1122   0.991       .  S
O1059      C1079   1.291       .  A
O1060      C1081   1.313       .  A
O1061     Zr1071   2.418       .  S
O1061      C1080   1.282       .  A
O1062     Zr1070   2.395       .  S
O1062      C1081   1.272       .  A
O1063      C1080   1.307       .  A
O1064     Zr1072   2.417       .  S
O1064      C1079   1.280       .  A
O1065     Zr1070   2.395       .  S
O1065     Zr1072   2.392       .  S
O1066     Zr1071   2.406       .  S
O1066     Zr1072   2.394       .  S
O1066      H1101   0.965       .  S
O1067     Zr1070   2.415       .  S
O1067     Zr1087   2.400       .  S
O1067      H1104   0.964       .  S
O1068     Zr1071   2.394       .  S
O1068     Zr1087   2.346       .  S
Zr1069     O1094   2.436       .  S
Zr1069     O1088   2.410       .  S
Zr1069     O1096   2.412       .  S
Zr1069     O1084   2.391       .  S
Zr1069     O1075   2.397       .  S
Zr1069     O1076   2.404       .  S
Zr1069     O1077   2.381       .  S
Zr1069     O1078   2.371       .  S
Zr1070     O1089   2.447       .  S
Zr1070     O1082   2.434       .  S
Zr1070     O1083   2.417       .  S
Zr1070     O1076   2.388       .  S
Zr1070     O1077   2.379       .  S
Zr1071     O1073   2.441       .  S
Zr1071     O1095   2.438       .  S
Zr1071     O1097   2.504       .  S
Zr1071     O1075   2.381       .  S
Zr1071     O1078   2.354       .  S
Zr1072     O1098   2.439       .  S
Zr1072     O1099   2.437       .  S
Zr1072     O1074   2.438   1_565  S
Zr1072     O1075   2.417       .  S
Zr1072     O1076   2.404       .  S
O1073      H1110   0.989       .  S
O1074      H1105   0.991       .  S
O1074      H1119   0.989       .  S
O1076      H1102   0.977       .  S
O1077     Zr1087   2.351       .  S
O1078     Zr1087   2.380       .  S
O1078      H1103   0.963       .  S
C1079      C2458   1.481       .  S
C1080      C2417   1.485       .  S
C1081      C2237   1.518       .  S
O1082      H1118   0.990   1_565  S
O1083      C1085   1.278       .  A
O1084      C1085   1.280       .  A
C1085      C2225   1.449       .  S
O1086     Zr1087   2.435       .  S
O1086      H1115   0.990       .  S
Zr1087     O1090   2.435       .  S
Zr1087     O1091   2.437       .  S
Zr1087     O1092   2.404       .  S
O1088      C1093   1.278       .  A
O1089      H1106   0.989       .  S
O1089      H1121   0.992       .  S
O1090      H1107   0.990       .  S
O1091      H1111   0.993       .  S
O1091      H1120   0.988       .  S
O1092      C1093   1.283       .  A
C1093      C2233   1.454       .  S
O1094      H1113   0.990       .  S
O1094      H1117   0.990       .  S
O1095      H1109   0.989       .  S
O1095      H1116   0.991       .  S
O1096      C1100   1.283       .  A
O1097      C1100   1.294       .  A
O1098      H1108   0.991       .  S
O1099      H1112   0.991       .  S
C1100      C2229   1.504       .  S
Zr1123     O1124   2.436   1_545  S
Zr1123     O1125   2.488       .  S
Zr1123     O1126   2.589   1_545  S
Zr1123     O1129   2.557   1_545  S
Zr1123     O1131   2.397       .  S
Zr1123     O1132   2.427       .  S
Zr1123     O1133   2.412       .  S
Zr1123     O1134   2.370       .  S
O1124      H1180   0.990       .  S
O1124      H1188   0.990       .  S
O1125      C1145   1.293       .  A
O1126      C1147   1.316       .  A
O1127     Zr1137   2.403       .  S
O1127      C1146   1.279       .  A
O1128     Zr1136   2.386       .  S
O1128      C1147   1.271   1_545  A
O1129      C1146   1.313   1_565  A
O1130     Zr1138   2.425       .  S
O1130      C1145   1.282       .  A
O1131     Zr1136   2.396       .  S
O1131     Zr1138   2.393       .  S
O1132     Zr1137   2.393       .  S
O1132     Zr1138   2.392       .  S
O1132      H1167   0.974       .  S
O1133     Zr1136   2.417       .  S
O1133     Zr1153   2.383       .  S
O1133      H1170   0.968       .  S
O1134     Zr1137   2.394       .  S
O1134     Zr1153   2.339       .  S
Zr1135     O1160   2.438       .  S
Zr1135     O1154   2.416       .  S
Zr1135     O1162   2.432       .  S
Zr1135     O1150   2.402       .  S
Zr1135     O1141   2.400       .  S
Zr1135     O1142   2.411       .  S
Zr1135     O1143   2.383       .  S
Zr1135     O1144   2.374       .  S
Zr1136     O1155   2.449       .  S
Zr1136     O1148   2.433       .  S
Zr1136     O1149   2.413       .  S
Zr1136     O1142   2.388       .  S
Zr1136     O1143   2.378       .  S
Zr1137     O1139   2.438   1_556  S
Zr1137     O1161   2.438   1_556  S
Zr1137     O1163   2.488       .  S
Zr1137     O1141   2.372       .  S
Zr1137     O1144   2.358       .  S
Zr1138     O1164   2.436       .  S
Zr1138     O1165   2.437       .  S
Zr1138     O1140   2.438       .  S
Zr1138     O1141   2.419       .  S
Zr1138     O1142   2.410       .  S
O1139      H1176   0.987   1_554  S
O1140      H1171   0.991       .  S
O1140      H1185   0.990       .  S
O1142      H1168   0.972       .  S
O1143     Zr1153   2.355       .  S
O1144     Zr1153   2.384       .  S
O1144      H1169   0.962       .  S
C1145      C2265   1.482   1_556  S
C1146      C2306   1.491   1_545  S
C1147      C2238   1.519       .  S
O1148      H1184   0.989       .  S
O1149      C1151   1.277       .  A
O1150      C1151   1.282       .  A
C1151      C2221   1.453       .  S
O1152     Zr1153   2.435   1_565  S
O1152      H1181   0.991       .  S
Zr1153     O1156   2.435       .  S
Zr1153     O1157   2.436   1_455  S
Zr1153     O1158   2.377       .  S
O1154      C1159   1.279       .  A
O1155      H1172   0.986       .  S
O1155      H1187   0.995       .  S
O1156      H1173   0.991       .  S
O1157      H1177   0.988       .  S
O1157      H1186   0.992       .  S
O1158      C1159   1.278       .  A
C1159      C2217   1.447   1_455  S
O1160      H1179   0.991       .  S
O1160      H1183   0.989       .  S
O1161      H1175   0.990       .  S
O1161      H1182   0.990       .  S
O1162      C1166   1.283       .  A
O1163      C1166   1.291       .  A
O1164      H1174   0.990       .  S
O1165      H1178   0.990       .  S
C1166      C2213   1.491       .  S
Zr1189     O1190   2.444       .  S
Zr1189     O1191   2.454       .  S
Zr1189     O1192   2.595       .  S
Zr1189     O1195   2.505       .  S
Zr1189     O1197   2.379       .  S
Zr1189     O1198   2.428       .  S
Zr1189     O1199   2.398       .  S
Zr1189     O1200   2.314       .  S
O1190      H1246   0.992       .  S
O1190      H1254   0.989       .  S
O1191      C1211   1.286       .  A
O1192      C1213   1.316       .  A
O1193     Zr1203   2.401       .  S
O1193      C1212   1.281       .  A
O1194     Zr1202   2.368       .  S
O1194      C1213   1.269       .  A
O1195      C1212   1.303       .  A
O1196     Zr1204   2.454       .  S
O1196      C1211   1.286       .  A
O1197     Zr1202   2.403       .  S
O1197     Zr1204   2.383       .  S
O1198     Zr1203   2.404       .  S
O1198     Zr1204   2.383       .  S
O1198      H1233   0.969       .  S
O1199     Zr1202   2.402       .  S
O1199     Zr1219   2.399       .  S
O1199      H1236   0.964       .  S
O1200     Zr1203   2.334       .  S
O1200     Zr1219   2.285       .  S
Zr1201     O1226   2.437       .  S
Zr1201     O1220   2.418       .  S
Zr1201     O1228   2.395       .  S
Zr1201     O1216   2.408       .  S
Zr1201     O1207   2.402       .  S
Zr1201     O1208   2.400       .  S
Zr1201     O1209   2.371       .  S
Zr1201     O1210   2.371       .  S
Zr1202     O1221   2.441       .  S
Zr1202     O1214   2.436       .  S
Zr1202     O1215   2.404       .  S
Zr1202     O1208   2.394       .  S
Zr1202     O1209   2.371       .  S
Zr1203     O1205   2.446       .  S
Zr1203     O1227   2.450       .  S
Zr1203     O1229   2.525       .  S
Zr1203     O1207   2.378       .  S
Zr1203     O1210   2.355       .  S
Zr1204     O1230   2.437       .  S
Zr1204     O1231   2.435       .  S
Zr1204     O1206   2.438       .  S
Zr1204     O1207   2.422       .  S
Zr1204     O1208   2.421       .  S
O1205      H1242   0.994       .  S
O1206      H1237   0.993       .  S
O1206      H1251   0.987       .  S
O1208      H1234   0.972       .  S
O1209     Zr1219   2.365       .  S
O1210     Zr1219   2.392       .  S
O1210      H1235   0.968       .  S
C1211      C2373   1.479       .  S
C1212      C2390   1.474       .  S
C1213      C2209   1.520       .  S
O1214      H1250   0.989       .  S
O1215      C1217   1.276       .  A
O1216      C1217   1.283       .  A
C1217      C2201   1.463       .  S
O1218     Zr1219   2.434       .  S
O1218      H1247   0.989       .  S
Zr1219     O1222   2.455       .  S
Zr1219     O1223   2.433       .  S
Zr1219     O1224   2.387       .  S
O1220      C1225   1.281       .  A
O1221      H1238   0.989       .  S
O1221      H1253   0.991       .  S
O1222      H1239   0.991       .  S
O1223      H1243   0.990       .  S
O1223      H1252   0.990       .  S
O1224      C1225   1.278       .  A
C1225      C2206   1.450       .  S
O1226      H1245   0.986       .  S
O1226      H1249   0.992       .  S
O1227      H1241   0.990       .  S
O1227      H1248   0.991       .  S
O1228      C1232   1.278       .  A
O1229      C1232   1.295       .  A
O1230      H1240   0.989       .  S
O1231      H1244   0.990       .  S
C1232      C2230   1.494       .  S
Zr1255     O1256   2.444       .  S
Zr1255     O1257   2.465       .  S
Zr1255     O1258   2.581       .  S
Zr1255     O1261   2.515       .  S
Zr1255     O1263   2.384       .  S
Zr1255     O1264   2.422       .  S
Zr1255     O1265   2.403       .  S
Zr1255     O1266   2.315       .  S
O1256      H1312   0.990       .  S
O1256      H1320   0.991       .  S
O1257      C1277   1.288       .  A
O1258      C1279   1.314       .  A
O1259     Zr1269   2.399       .  S
O1259      C1278   1.280       .  A
O1260     Zr1268   2.390       .  S
O1260      C1279   1.274       .  A
O1261      C1278   1.305       .  A
O1262     Zr1270   2.452       .  S
O1262      C1277   1.288       .  A
O1263     Zr1268   2.405       .  S
O1263     Zr1270   2.383       .  S
O1264     Zr1269   2.395       .  S
O1264     Zr1270   2.388       .  S
O1264      H1299   0.969       .  S
O1265     Zr1268   2.398       .  S
O1265     Zr1285   2.403   1_655  S
O1265      H1302   0.965       .  S
O1266     Zr1269   2.330       .  S
O1266     Zr1285   2.295   1_655  S
Zr1267     O1292   2.437       .  S
Zr1267     O1286   2.412   1_655  S
Zr1267     O1294   2.433       .  S
Zr1267     O1282   2.403       .  S
Zr1267     O1273   2.398       .  S
Zr1267     O1274   2.409       .  S
Zr1267     O1275   2.380       .  S
Zr1267     O1276   2.376       .  S
Zr1268     O1287   2.443       .  S
Zr1268     O1280   2.434       .  S
Zr1268     O1281   2.411       .  S
Zr1268     O1274   2.400       .  S
Zr1268     O1275   2.369       .  S
Zr1269     O1271   2.450   1_556  S
Zr1269     O1293   2.454       .  S
Zr1269     O1295   2.498       .  S
Zr1269     O1273   2.378       .  S
Zr1269     O1276   2.354       .  S
Zr1270     O1296   2.439       .  S
Zr1270     O1297   2.434       .  S
Zr1270     O1272   2.435       .  S
Zr1270     O1273   2.423       .  S
Zr1270     O1274   2.416       .  S
O1271      H1308   0.988       .  S
O1272      H1303   0.989       .  S
O1272      H1317   0.991       .  S
O1274      H1300   0.974       .  S
O1275     Zr1285   2.348   1_655  S
O1276     Zr1285   2.383   1_655  S
O1276      H1301   0.961   1_655  S
C1277      C2330   1.488       .  S
C1278      C2242   1.478   1_655  S
C1279      C2210   1.518       .  S
O1280      H1316   0.990       .  S
O1281      C1283   1.278       .  A
O1282      C1283   1.283       .  A
C1283      C2193   1.456       .  S
O1284     Zr1285   2.434       .  S
O1284      H1313   0.990       .  S
Zr1285     O1288   2.452       .  S
Zr1285     O1289   2.433       .  S
Zr1285     O1290   2.417       .  S
O1286      C1291   1.279       .  A
O1287      H1304   0.990       .  S
O1287      H1319   0.990       .  S
O1288      H1305   0.990       .  S
O1289      H1309   0.993       .  S
O1289      H1318   0.987       .  S
O1290      C1291   1.285       .  A
C1291      C2197   1.458       .  S
O1292      H1311   0.990       .  S
O1292      H1315   0.990       .  S
O1293      H1307   0.990   1_556  S
O1293      H1314   0.990   1_556  S
O1294      C1298   1.284       .  A
O1295      C1298   1.293       .  A
O1296      H1306   0.990       .  S
O1297      H1310   0.990       .  S
C1298      C2214   1.495   1_655  S
Zr1321     O1322   2.438       .  S
Zr1321     O1323   2.490       .  S
Zr1321     O1324   2.506       .  S
Zr1321     O1327   2.555       .  S
Zr1321     O1329   2.399       .  S
Zr1321     O1330   2.388       .  S
Zr1321     O1331   2.432       .  S
Zr1321     O1332   2.419       .  S
O1322      H1378   0.989       .  S
O1322      H1386   0.991       .  S
O1323      C1343   1.294       .  A
O1324      C1345   1.300       .  A
O1325     Zr1335   2.394       .  S
O1325      C1344   1.270       .  A
O1326     Zr1334   2.411       .  S
O1326      C1345   1.280       .  A
O1327      C1344   1.308       .  A
O1328     Zr1336   2.424       .  S
O1328      C1343   1.281       .  A
O1329     Zr1334   2.409       .  S
O1329     Zr1336   2.386       .  S
O1330     Zr1335   2.400       .  S
O1330     Zr1336   2.379       .  S
O1330      H1365   0.968       .  S
O1331     Zr1334   2.430       .  S
O1331     Zr1351   2.339       .  S
O1331      H1368   0.961       .  S
O1332     Zr1335   2.404       .  S
O1332     Zr1351   2.401       .  S
Zr1333     O1358   2.436       .  S
Zr1333     O1352   2.397       .  S
Zr1333     O1360   2.392       .  S
Zr1333     O1348   2.437       .  S
Zr1333     O1339   2.402       .  S
Zr1333     O1340   2.394       .  S
Zr1333     O1341   2.367       .  S
Zr1333     O1342   2.391       .  S
Zr1334     O1353   2.444       .  S
Zr1334     O1346   2.435       .  S
Zr1334     O1347   2.496       .  S
Zr1334     O1340   2.389       .  S
Zr1334     O1341   2.357       .  S
Zr1335     O1337   2.440       .  S
Zr1335     O1359   2.437       .  S
Zr1335     O1361   2.415       .  S
Zr1335     O1339   2.386       .  S
Zr1335     O1342   2.387       .  S
Zr1336     O1362   2.437       .  S
Zr1336     O1363   2.436       .  S
Zr1336     O1338   2.436       .  S
Zr1336     O1339   2.402       .  S
Zr1336     O1340   2.419       .  S
O1337      H1374   0.988       .  S
O1338      H1369   0.990       .  S
O1338      H1383   0.990       .  S
O1340      H1366   0.966       .  S
O1341     Zr1351   2.371       .  S
O1342     Zr1351   2.330       .  S
O1342      H1367   0.957       .  S
C1343      C2393   1.492       .  S
C1344      C2189   1.515       .  S
C1345      C2369   1.478       .  S
O1346      H1382   0.990       .  S
O1347      C1349   1.294       .  A
O1348      C1349   1.283       .  A
C1349      C2185   1.503       .  S
O1350     Zr1351   2.434       .  S
O1350      H1379   0.991       .  S
Zr1351     O1354   2.437       .  S
Zr1351     O1355   2.441       .  S
Zr1351     O1356   2.413       .  S
O1352      C1357   1.276       .  A
O1353      H1370   0.991       .  S
O1353      H1385   0.990       .  S
O1354      H1371   0.990       .  S
O1355      H1375   0.992       .  S
O1355      H1384   0.989       .  S
O1356      C1357   1.284       .  A
C1357      C2194   1.456       .  S
O1358      H1377   0.990       .  S
O1358      H1381   0.990       .  S
O1359      H1373   0.990       .  S
O1359      H1380   0.991       .  S
O1360      C1364   1.282       .  A
O1361      C1364   1.278       .  A
O1362      H1372   0.989   1_545  S
O1363      H1376   0.989       .  S
C1364      C2218   1.444       .  S
Zr1387     O1388   2.436       .  S
Zr1387     O1389   2.486       .  S
Zr1387     O1390   2.504       .  S
Zr1387     O1393   2.570       .  S
Zr1387     O1395   2.400   1_545  S
Zr1387     O1396   2.392   1_545  S
Zr1387     O1397   2.443   1_545  S
Zr1387     O1398   2.397   1_545  S
O1388      H1444   0.989       .  S
O1388      H1452   0.992       .  S
O1389      C1409   1.292   1_545  A
O1390      C1411   1.299       .  A
O1391     Zr1401   2.385   1_545  S
O1391      C1410   1.273       .  A
O1392     Zr1400   2.388       .  S
O1392      C1411   1.273   1_565  A
O1393      C1410   1.313       .  A
O1394     Zr1402   2.405       .  S
O1394      C1409   1.280       .  A
O1395     Zr1400   2.406       .  S
O1395     Zr1402   2.368       .  S
O1396     Zr1401   2.399       .  S
O1396     Zr1402   2.391       .  S
O1396      H1431   0.969       .  S
O1397     Zr1400   2.428       .  S
O1397     Zr1417   2.359       .  S
O1397      H1434   0.970       .  S
O1398     Zr1401   2.400       .  S
O1398     Zr1417   2.390       .  S
Zr1399     O1424   2.437       .  S
Zr1399     O1418   2.401       .  S
Zr1399     O1426   2.388       .  S
Zr1399     O1414   2.427       .  S
Zr1399     O1405   2.397       .  S
Zr1399     O1406   2.387       .  S
Zr1399     O1407   2.360       .  S
Zr1399     O1408   2.385       .  S
Zr1400     O1419   2.435       .  S
Zr1400     O1412   2.435   1_556  S
Zr1400     O1413   2.468       .  S
Zr1400     O1406   2.383       .  S
Zr1400     O1407   2.350       .  S
Zr1401     O1403   2.441       .  S
Zr1401     O1425   2.439       .  S
Zr1401     O1427   2.416       .  S
Zr1401     O1405   2.383       .  S
Zr1401     O1408   2.387       .  S
Zr1402     O1428   2.436       .  S
Zr1402     O1429   2.436       .  S
Zr1402     O1404   2.439       .  S
Zr1402     O1405   2.402       .  S
Zr1402     O1406   2.404       .  S
O1403      H1440   0.988       .  S
O1404      H1435   0.991       .  S
O1404      H1449   0.989       .  S
O1406      H1432   0.967       .  S
O1407     Zr1417   2.368       .  S
O1408     Zr1417   2.349       .  S
O1408      H1433   0.963       .  S
C1409      C2310   1.493   1_556  S
C1410      C2190   1.516       .  S
C1411      C2262   1.478   1_556  S
O1412      H1448   0.989       .  S
O1413      C1415   1.290       .  A
O1414      C1415   1.283       .  A
C1415      C2182   1.488       .  S
O1416     Zr1417   2.439   1_545  S
O1416      H1445   0.989       .  S
Zr1417     O1420   2.439       .  S
Zr1417     O1421   2.442       .  S
Zr1417     O1422   2.403       .  S
O1418      C1423   1.277       .  A
O1419      H1436   0.988       .  S
O1419      H1451   0.989       .  S
O1420      H1437   0.990       .  S
O1421      H1441   0.993       .  S
O1421      H1450   0.987       .  S
O1422      C1423   1.282       .  A
C1423      C2226   1.452       .  S
O1424      H1443   0.989       .  S
O1424      H1447   0.991       .  S
O1425      H1439   0.991       .  S
O1425      H1446   0.989       .  S
O1426      C1430   1.281       .  A
O1427      C1430   1.277       .  A
O1428      H1438   0.990       .  S
O1429      H1442   0.990       .  S
C1430      C2205   1.447       .  S
Zr1453     O1454   2.438       .  S
Zr1453     O1455   2.458       .  S
Zr1453     O1456   2.510       .  S
Zr1453     O1459   2.551       .  S
Zr1453     O1461   2.406       .  S
Zr1453     O1462   2.394       .  S
Zr1453     O1463   2.430       .  S
Zr1453     O1464   2.412       .  S
O1454      H1510   0.988       .  S
O1454      H1518   0.992       .  S
O1455      C1475   1.287       .  A
O1456      C1477   1.301       .  A
O1457     Zr1467   2.389       .  S
O1457      C1476   1.274       .  A
O1458     Zr1466   2.411       .  S
O1458      C1477   1.280       .  A
O1459      C1476   1.310       .  A
O1460     Zr1468   2.429       .  S
O1460      C1475   1.282       .  A
O1461     Zr1466   2.408       .  S
O1461     Zr1468   2.383       .  S
O1462     Zr1467   2.401       .  S
O1462     Zr1468   2.377       .  S
O1462      H1497   0.968       .  S
O1463     Zr1466   2.427       .  S
O1463     Zr1483   2.329       .  S
O1463      H1500   0.960       .  S
O1464     Zr1467   2.404       .  S
O1464     Zr1483   2.399       .  S
Zr1465     O1490   2.433       .  S
Zr1465     O1484   2.397       .  S
Zr1465     O1492   2.404       .  S
Zr1465     O1480   2.431       .  S
Zr1465     O1471   2.401       .  S
Zr1465     O1472   2.395       .  S
Zr1465     O1473   2.369       .  S
Zr1465     O1474   2.387       .  S
Zr1466     O1485   2.442       .  S
Zr1466     O1478   2.432       .  S
Zr1466     O1479   2.494       .  S
Zr1466     O1472   2.381       .  S
Zr1466     O1473   2.363       .  S
Zr1467     O1469   2.437       .  S
Zr1467     O1491   2.436       .  S
Zr1467     O1493   2.423       .  S
Zr1467     O1471   2.391       .  S
Zr1467     O1474   2.376       .  S
Zr1468     O1494   2.436       .  S
Zr1468     O1495   2.436       .  S
Zr1468     O1470   2.440       .  S
Zr1468     O1471   2.407       .  S
Zr1468     O1472   2.411       .  S
O1469      H1506   0.990       .  S
O1470      H1501   0.991       .  S
O1470      H1515   0.989       .  S
O1472      H1498   0.971       .  S
O1473     Zr1483   2.382       .  S
O1474     Zr1483   2.332       .  S
O1474      H1499   0.959       .  S
C1475      C2422   1.481       .  S
C1476      C2177   1.515       .  S
C1477      C2454   1.484       .  S
O1478      H1514   0.989       .  S
O1479      C1481   1.293       .  A
O1480      C1481   1.281       .  A
C1481      C2186   1.500       .  S
O1482     Zr1483   2.439       .  S
O1482      H1511   0.989       .  S
Zr1483     O1486   2.437       .  S
Zr1483     O1487   2.441       .  S
Zr1483     O1488   2.402       .  S
O1484      C1489   1.277       .  A
O1485      H1502   0.992       .  S
O1485      H1517   0.988       .  S
O1486      H1503   0.990       .  S
O1487      H1507   0.989       .  S
O1487      H1516   0.991       .  S
O1488      C1489   1.282       .  A
C1489      C2222   1.453       .  S
O1490      H1509   0.991       .  S
O1490      H1513   0.988       .  S
O1491      H1505   0.991       .  S
O1491      H1512   0.989       .  S
O1492      C1496   1.284       .  A
O1493      C1496   1.280       .  A
O1494      H1504   0.990       .  S
O1495      H1508   0.990       .  S
C1496      C2198   1.458       .  S
Zr1519     O1520   2.437       .  S
Zr1519     O1521   2.481       .  S
Zr1519     O1522   2.522       .  S
Zr1519     O1525   2.552       .  S
Zr1519     O1527   2.399       .  S
Zr1519     O1528   2.394       .  S
Zr1519     O1529   2.426       .  S
Zr1519     O1530   2.424       .  S
O1520      H1576   0.989       .  S
O1520      H1584   0.991       .  S
O1521      C1541   1.291       .  A
O1522      C1543   1.304       .  A
O1523     Zr1533   2.403       .  S
O1523      C1542   1.278       .  A
O1524     Zr1532   2.404       .  S
O1524      C1543   1.278       .  A
O1525      C1542   1.310       .  A
O1526     Zr1534   2.423       .  S
O1526      C1541   1.282       .  A
O1527     Zr1532   2.400       .  S
O1527     Zr1534   2.381       .  S
O1528     Zr1533   2.407       .  S
O1528     Zr1534   2.371       .  S
O1528      H1563   0.964       .  S
O1529     Zr1532   2.430       .  S
O1529     Zr1549   2.338       .  S
O1529      H1566   0.959       .  S
O1530     Zr1533   2.401       .  S
O1530     Zr1549   2.404       .  S
Zr1531     O1556   2.439       .  S
Zr1531     O1550   2.407       .  S
Zr1531     O1558   2.390       .  S
Zr1531     O1546   2.426       .  S
Zr1531     O1537   2.401       .  S
Zr1531     O1538   2.392       .  S
Zr1531     O1539   2.364       .  S
Zr1531     O1540   2.390       .  S
Zr1532     O1551   2.444       .  S
Zr1532     O1544   2.435       .  S
Zr1532     O1545   2.475       .  S
Zr1532     O1538   2.387       .  S
Zr1532     O1539   2.363       .  S
Zr1533     O1535   2.436       .  S
Zr1533     O1557   2.437       .  S
Zr1533     O1559   2.431       .  S
Zr1533     O1537   2.395       .  S
Zr1533     O1540   2.384       .  S
Zr1534     O1560   2.437       .  S
Zr1534     O1561   2.436       .  S
Zr1534     O1536   2.440       .  S
Zr1534     O1537   2.401       .  S
Zr1534     O1538   2.405       .  S
O1535      H1572   0.991       .  S
O1536      H1567   0.991       .  S
O1536      H1581   0.989       .  S
O1538      H1564   0.969       .  S
O1539     Zr1549   2.376       .  S
O1540     Zr1549   2.335       .  S
O1540      H1565   0.956       .  S
C1541      C2246   1.490       .  S
C1542      C2178   1.514       .  S
C1543      C2326   1.483       .  S
O1544      H1580   0.992       .  S
O1545      C1547   1.289       .  A
O1546      C1547   1.280       .  A
C1547      C2181   1.486       .  S
O1548     Zr1549   2.434       .  S
O1548      H1577   0.990       .  S
Zr1549     O1552   2.437       .  S
Zr1549     O1553   2.439       .  S
Zr1549     O1554   2.421       .  S
O1550      C1555   1.278       .  A
O1551      H1568   0.990   1_556  S
O1551      H1583   0.991       .  S
O1552      H1569   0.989       .  S
O1553      H1573   0.989       .  S
O1553      H1582   0.989       .  S
O1554      C1555   1.285       .  A
C1555      C2202   1.464       .  S
O1556      H1575   0.990       .  S
O1556      H1579   0.990       .  S
O1557      H1571   0.992       .  S
O1557      H1578   0.988       .  S
O1558      C1562   1.281       .  A
O1559      C1562   1.283       .  A
O1560      H1570   0.990       .  S
O1561      H1574   0.989       .  S
C1562      C2234   1.456       .  S
Zr1585     O1586   2.437       .  S
Zr1585     O1587   2.455       .  S
Zr1585     O1588   2.506       .  S
Zr1585     O1591   2.569       .  S
Zr1585     O1593   2.410       .  S
Zr1585     O1594   2.397       .  S
Zr1585     O1595   2.439       .  S
Zr1585     O1596   2.392       .  S
O1586      H1642   0.989       .  S
O1586      H1650   0.991       .  S
O1587      C1607   1.286       .  A
O1588      C1609   1.299       .  A
O1589     Zr1599   2.375       .  S
O1589      C1608   1.271       .  A
O1590     Zr1598   2.389       .  S
O1590      C1609   1.272       .  A
O1591      C1608   1.313       .  A
O1592     Zr1600   2.426       .  S
O1592      C1607   1.284       .  A
O1593     Zr1598   2.413       .  S
O1593     Zr1600   2.367       .  S
O1594     Zr1599   2.397       .  S
O1594     Zr1600   2.390       .  S
O1594      H1629   0.970       .  S
O1595     Zr1598   2.430       .  S
O1595     Zr1615   2.352       .  S
O1595      H1632   0.962       .  S
O1596     Zr1599   2.397       .  S
O1596     Zr1615   2.382       .  S
Zr1597     O1622   2.436       .  S
Zr1597     O1616   2.400       .  S
Zr1597     O1624   2.396       .  S
Zr1597     O1612   2.435       .  S
Zr1597     O1603   2.397       .  S
Zr1597     O1604   2.392       .  S
Zr1597     O1605   2.364       .  S
Zr1597     O1606   2.391       .  S
Zr1598     O1617   2.437       .  S
Zr1598     O1610   2.435       .  S
Zr1598     O1611   2.483       .  S
Zr1598     O1604   2.382       .  S
Zr1598     O1605   2.347       .  S
Zr1599     O1601   2.441       .  S
Zr1599     O1623   2.438       .  S
Zr1599     O1625   2.407       .  S
Zr1599     O1603   2.379       .  S
Zr1599     O1606   2.382       .  S
Zr1600     O1626   2.438       .  S
Zr1600     O1627   2.435       .  S
Zr1600     O1602   2.437       .  S
Zr1600     O1603   2.402       .  S
Zr1600     O1604   2.407       .  S
O1601      H1638   0.989       .  S
O1602      H1633   0.991       .  S
O1602      H1647   0.989       .  S
O1604      H1630   0.977       .  S
O1605     Zr1615   2.374       .  S
O1606     Zr1615   2.356       .  S
O1606      H1631   0.952       .  S
C1607      C2437   1.483       .  S
C1608      C2174   1.514       .  S
C1609      C2378   1.480       .  S
O1610      H1646   0.989       .  S
O1611      C1613   1.293       .  A
O1612      C1613   1.284       .  A
C1613      C2161   1.498       .  S
O1614     Zr1615   2.435       .  S
O1614      H1643   0.990       .  S
Zr1615     O1618   2.437   1_455  S
Zr1615     O1619   2.438       .  S
Zr1615     O1620   2.391       .  S
O1616      C1621   1.277       .  A
O1617      H1634   0.988       .  S
O1617      H1649   0.990       .  S
O1618      H1635   0.990       .  S
O1619      H1639   0.991       .  S
O1619      H1648   0.989       .  S
O1620      C1621   1.279       .  A
C1621      C2169   1.447   1_455  S
O1622      H1641   0.990       .  S
O1622      H1645   0.990       .  S
O1623      H1637   0.991       .  S
O1623      H1644   0.990       .  S
O1624      C1628   1.282       .  A
O1625      C1628   1.275       .  A
O1626      H1636   0.989       .  S
O1627      H1640   0.991       .  S
C1628      C2165   1.449       .  S
Zr1651     O1652   2.437       .  S
Zr1651     O1653   2.482       .  S
Zr1651     O1654   2.499       .  S
Zr1651     O1657   2.549       .  S
Zr1651     O1659   2.401       .  S
Zr1651     O1660   2.391       .  S
Zr1651     O1661   2.433       .  S
Zr1651     O1662   2.419       .  S
O1652      H1708   0.988       .  S
O1652      H1716   0.992       .  S
O1653      C1673   1.292       .  A
O1654      C1675   1.299       .  A
O1655     Zr1665   2.396       .  S
O1655      C1674   1.272       .  A
O1656     Zr1664   2.416       .  S
O1656      C1675   1.280       .  A
O1657      C1674   1.308       .  A
O1658     Zr1666   2.434       .  S
O1658      C1673   1.283       .  A
O1659     Zr1664   2.409       .  S
O1659     Zr1666   2.382       .  S
O1660     Zr1665   2.404       .  S
O1660     Zr1666   2.383       .  S
O1660      H1695   0.974       .  S
O1661     Zr1664   2.427       .  S
O1661     Zr1681   2.335       .  S
O1661      H1698   0.967       .  S
O1662     Zr1665   2.402       .  S
O1662     Zr1681   2.407       .  S
Zr1663     O1688   2.435       .  S
Zr1663     O1682   2.396       .  S
Zr1663     O1690   2.399       .  S
Zr1663     O1678   2.426       .  S
Zr1663     O1669   2.399       .  S
Zr1663     O1670   2.398       .  S
Zr1663     O1671   2.369       .  S
Zr1663     O1672   2.392       .  S
Zr1664     O1683   2.444       .  S
Zr1664     O1676   2.435       .  S
Zr1664     O1677   2.494       .  S
Zr1664     O1670   2.388       .  S
Zr1664     O1671   2.353       .  S
Zr1665     O1667   2.439       .  S
Zr1665     O1689   2.436       .  S
Zr1665     O1691   2.423       .  S
Zr1665     O1669   2.386       .  S
Zr1665     O1672   2.384       .  S
Zr1666     O1692   2.438       .  S
Zr1666     O1693   2.435       .  S
Zr1666     O1668   2.437       .  S
Zr1666     O1669   2.411       .  S
Zr1666     O1670   2.413       .  S
O1667      H1704   0.989       .  S
O1668      H1699   0.990       .  S
O1668      H1713   0.990       .  S
O1670      H1696   0.967       .  S
O1671     Zr1681   2.366       .  S
O1672     Zr1681   2.328       .  S
O1672      H1697   0.966       .  S
C1673      C2254   1.493       .  S
C1674      C2173   1.513       .  S
C1675      C2274   1.478       .  S
O1676      H1712   0.990       .  S
O1677      C1679   1.293       .  A
O1678      C1679   1.281       .  A
C1679      C2149   1.497       .  S
O1680     Zr1681   2.439       .  S
O1680      H1709   0.990       .  S
Zr1681     O1684   2.438       .  S
Zr1681     O1685   2.442       .  S
Zr1681     O1686   2.424       .  S
O1682      C1687   1.276       .  A
O1683      H1700   0.990       .  S
O1683      H1715   0.991       .  S
O1684      H1701   0.987       .  S
O1685      H1705   0.989       .  S
O1685      H1714   0.991       .  S
O1686      C1687   1.286       .  A
C1687      C2153   1.460       .  S
O1688      H1707   0.991       .  S
O1688      H1711   0.990       .  S
O1689      H1703   0.990       .  S
O1689      H1710   0.990       .  S
O1690      C1694   1.283       .  A
O1691      C1694   1.280       .  A
O1692      H1702   0.988       .  S
O1693      H1706   0.989       .  S
C1694      C2157   1.450       .  S
Zr1717     O1718   2.437   1_545  S
Zr1717     O1719   2.477       .  S
Zr1717     O1720   2.508       .  S
Zr1717     O1723   2.554   1_545  S
Zr1717     O1725   2.396       .  S
Zr1717     O1726   2.389       .  S
Zr1717     O1727   2.434       .  S
Zr1717     O1728   2.418       .  S
O1718      H1774   0.989       .  S
O1718      H1782   0.991       .  S
O1719      C1739   1.292       .  A
O1720      C1741   1.301       .  A
O1721     Zr1731   2.399       .  S
O1721      C1740   1.276   1_545  A
O1722     Zr1730   2.408       .  S
O1722      C1741   1.279       .  A
O1723      C1740   1.310       .  A
O1724     Zr1732   2.432       .  S
O1724      C1739   1.283       .  A
O1725     Zr1730   2.402       .  S
O1725     Zr1732   2.381       .  S
O1726     Zr1731   2.402       .  S
O1726     Zr1732   2.382       .  S
O1726      H1761   0.967       .  S
O1727     Zr1730   2.432       .  S
O1727     Zr1747   2.341       .  S
O1727      H1764   0.968       .  S
O1728     Zr1731   2.400       .  S
O1728     Zr1747   2.410       .  S
Zr1729     O1754   2.435       .  S
Zr1729     O1748   2.405       .  S
Zr1729     O1756   2.399       .  S
Zr1729     O1744   2.433       .  S
Zr1729     O1735   2.401       .  S
Zr1729     O1736   2.392       .  S
Zr1729     O1737   2.367       .  S
Zr1729     O1738   2.392       .  S
Zr1730     O1749   2.443       .  S
Zr1730     O1742   2.434       .  S
Zr1730     O1743   2.492       .  S
Zr1730     O1736   2.386       .  S
Zr1730     O1737   2.356       .  S
Zr1731     O1733   2.437       .  S
Zr1731     O1755   2.437       .  S
Zr1731     O1757   2.423       .  S
Zr1731     O1735   2.392       .  S
Zr1731     O1738   2.384       .  S
Zr1732     O1758   2.437       .  S
Zr1732     O1759   2.437       .  S
Zr1732     O1734   2.441       .  S
Zr1732     O1735   2.406       .  S
Zr1732     O1736   2.411       .  S
O1733      H1770   0.991       .  S
O1734      H1765   0.989       .  S
O1734      H1779   0.991       .  S
O1736      H1762   0.965       .  S
O1737     Zr1747   2.372       .  S
O1738     Zr1747   2.326       .  S
O1738      H1763   0.959       .  S
C1739      C2406   1.490       .  S
C1740      C2145   1.517       .  S
C1741      C2474   1.479   1_655  S
O1742      H1778   0.991       .  S
O1743      C1745   1.293       .  A
O1744      C1745   1.282       .  A
C1745      C2162   1.498   1_655  S
O1746     Zr1747   2.439   1_455  S
O1746      H1775   0.989       .  S
Zr1747     O1750   2.437   1_655  S
Zr1747     O1751   2.445   1_655  S
Zr1747     O1752   2.425   1_655  S
O1748      C1753   1.278   1_655  A
O1749      H1766   0.988       .  S
O1749      H1781   0.993   1_655  S
O1750      H1767   0.989       .  S
O1751      H1771   0.992       .  S
O1751      H1780   0.988       .  S
O1752      C1753   1.286       .  A
C1753      C2142   1.464       .  S
O1754      H1773   0.990       .  S
O1754      H1777   0.990       .  S
O1755      H1769   0.989       .  S
O1755      H1776   0.991       .  S
O1756      C1760   1.284       .  A
O1757      C1760   1.281       .  A
O1758      H1768   0.988       .  S
O1759      H1772   0.990       .  S
C1760      C2137   1.451       .  S
Zr1783     O1784   2.438       .  S
Zr1783     O1785   2.462       .  S
Zr1783     O1786   2.520       .  S
Zr1783     O1789   2.558       .  S
Zr1783     O1791   2.409       .  S
Zr1783     O1792   2.393       .  S
Zr1783     O1793   2.430       .  S
Zr1783     O1794   2.416       .  S
O1784      H1840   0.988       .  S
O1784      H1848   0.992       .  S
O1785      C1805   1.287       .  A
O1786      C1807   1.303       .  A
O1787     Zr1797   2.388       .  S
O1787      C1806   1.273       .  A
O1788     Zr1796   2.404       .  S
O1788      C1807   1.278       .  A
O1789      C1806   1.311       .  A
O1790     Zr1798   2.432       .  S
O1790      C1805   1.285       .  A
O1791     Zr1796   2.404       .  S
O1791     Zr1798   2.378       .  S
O1792     Zr1797   2.397       .  S
O1792     Zr1798   2.381       .  S
O1792      H1827   0.966       .  S
O1793     Zr1796   2.431       .  S
O1793     Zr1813   2.335       .  S
O1793      H1830   0.960       .  S
O1794     Zr1797   2.405       .  S
O1794     Zr1813   2.404       .  S
Zr1795     O1820   2.437       .  S
Zr1795     O1814   2.401       .  S
Zr1795     O1822   2.407       .  S
Zr1795     O1810   2.437       .  S
Zr1795     O1801   2.404       .  S
Zr1795     O1802   2.398       .  S
Zr1795     O1803   2.370       .  S
Zr1795     O1804   2.389       .  S
Zr1796     O1815   2.444       .  S
Zr1796     O1808   2.434       .  S
Zr1796     O1809   2.481       .  S
Zr1796     O1802   2.384       .  S
Zr1796     O1803   2.361       .  S
Zr1797     O1799   2.437       .  S
Zr1797     O1821   2.435       .  S
Zr1797     O1823   2.416       .  S
Zr1797     O1801   2.386       .  S
Zr1797     O1804   2.378       .  S
Zr1798     O1824   2.439   1_565  S
Zr1798     O1825   2.436       .  S
Zr1798     O1800   2.439       .  S
Zr1798     O1801   2.408       .  S
Zr1798     O1802   2.411       .  S
O1799      H1836   0.991       .  S
O1800      H1831   0.989   1_565  S
O1800      H1845   0.990       .  S
O1802      H1828   0.968       .  S
O1803     Zr1813   2.374       .  S
O1804     Zr1813   2.334       .  S
O1804      H1829   0.955       .  S
C1805      C2294   1.488   1_565  S
C1806      C2146   1.517       .  S
C1807      C2346   1.487       .  S
O1808      H1844   0.990       .  S
O1809      C1811   1.291       .  A
O1810      C1811   1.282       .  A
C1811      C2150   1.494       .  S
O1812     Zr1813   2.434       .  S
O1812      H1841   0.989       .  S
Zr1813     O1816   2.437       .  S
Zr1813     O1817   2.441       .  S
Zr1813     O1818   2.407       .  S
O1814      C1819   1.277       .  A
O1815      H1832   0.990       .  S
O1815      H1847   0.990       .  S
O1816      H1833   0.990       .  S
O1817      H1837   0.989       .  S
O1817      H1846   0.991       .  S
O1818      C1819   1.282       .  A
C1819      C2129   1.456       .  S
O1820      H1839   0.990       .  S
O1820      H1843   0.990       .  S
O1821      H1835   0.991       .  S
O1821      H1842   0.989       .  S
O1822      C1826   1.284       .  A
O1823      C1826   1.278       .  A
O1824      H1834   0.990       .  S
O1825      H1838   0.990       .  S
C1826      C2133   1.455       .  S
Zr1849     O1850   2.443   1_565  S
Zr1849     O1851   2.466       .  S
Zr1849     O1852   2.579   1_565  S
Zr1849     O1855   2.501   1_565  S
Zr1849     O1857   2.376       .  S
Zr1849     O1858   2.422       .  S
Zr1849     O1859   2.406       .  S
Zr1849     O1860   2.311       .  S
O1850      H1906   0.991       .  S
O1850      H1914   0.990       .  S
O1851      C1871   1.289       .  A
O1852      C1873   1.313       .  A
O1853     Zr1863   2.424       .  S
O1853      C1872   1.286       .  A
O1854     Zr1862   2.383       .  S
O1854      C1873   1.272   1_565  A
O1855      C1872   1.302   1_545  A
O1856     Zr1864   2.456       .  S
O1856      C1871   1.287       .  A
O1857     Zr1862   2.404       .  S
O1857     Zr1864   2.383       .  S
O1858     Zr1863   2.400       .  S
O1858     Zr1864   2.387       .  S
O1858      H1893   0.969       .  S
O1859     Zr1862   2.398       .  S
O1859     Zr1879   2.415       .  S
O1859      H1896   0.965   1_565  S
O1860     Zr1863   2.315       .  S
O1860     Zr1879   2.289       .  S
Zr1861     O1886   2.435       .  S
Zr1861     O1880   2.409       .  S
Zr1861     O1888   2.416       .  S
Zr1861     O1876   2.411       .  S
Zr1861     O1867   2.402       .  S
Zr1861     O1868   2.400       .  S
Zr1861     O1869   2.379       .  S
Zr1861     O1870   2.380       .  S
Zr1862     O1881   2.443       .  S
Zr1862     O1874   2.435       .  S
Zr1862     O1875   2.405       .  S
Zr1862     O1868   2.397       .  S
Zr1862     O1869   2.374       .  S
Zr1863     O1865   2.445       .  S
Zr1863     O1887   2.453       .  S
Zr1863     O1889   2.521       .  S
Zr1863     O1867   2.384       .  S
Zr1863     O1870   2.355       .  S
Zr1864     O1890   2.436       .  S
Zr1864     O1891   2.435       .  S
Zr1864     O1866   2.436       .  S
Zr1864     O1867   2.422       .  S
Zr1864     O1868   2.417       .  S
O1865      H1902   0.986       .  S
O1866      H1897   0.992       .  S
O1866      H1911   0.987       .  S
O1868      H1894   0.973       .  S
O1869     Zr1879   2.354       .  S
O1870     Zr1879   2.394       .  S
O1870      H1895   0.959       .  S
C1871      C2478   1.483       .  S
C1872      C2401   1.481   1_565  S
C1873      C2125   1.517       .  S
O1874      H1910   0.990       .  S
O1875      C1877   1.277       .  A
O1876      C1877   1.284       .  A
C1877      C2154   1.460       .  S
O1878     Zr1879   2.436   1_545  S
O1878      H1907   0.989       .  S
Zr1879     O1882   2.454       .  S
Zr1879     O1883   2.433       .  S
Zr1879     O1884   2.416       .  S
O1880      C1885   1.279       .  A
O1881      H1898   0.989       .  S
O1881      H1913   0.991   1_565  S
O1882      H1899   0.990       .  S
O1883      H1903   0.992       .  S
O1883      H1912   0.988       .  S
O1884      C1885   1.284       .  A
C1885      C2134   1.456       .  S
O1886      H1905   0.988       .  S
O1886      H1909   0.991       .  S
O1887      H1901   0.992       .  S
O1887      H1908   0.989       .  S
O1888      C1892   1.280       .  A
O1889      C1892   1.296       .  A
O1890      H1900   0.989       .  S
O1891      H1904   0.990       .  S
C1892      C2121   1.497       .  S
Zr1915     O1916   2.443       .  S
Zr1915     O1917   2.467       .  S
Zr1915     O1918   2.584       .  S
Zr1915     O1921   2.519       .  S
Zr1915     O1923   2.382       .  S
Zr1915     O1924   2.425       .  S
Zr1915     O1925   2.403       .  S
Zr1915     O1926   2.309       .  S
O1916      H1972   0.990       .  S
O1916      H1980   0.991       .  S
O1917      C1937   1.289       .  A
O1918      C1939   1.314       .  A
O1919     Zr1929   2.401       .  S
O1919      C1938   1.280       .  A
O1920     Zr1928   2.380       .  S
O1920      C1939   1.272       .  A
O1921      C1938   1.306       .  A
O1922     Zr1930   2.445       .  S
O1922      C1937   1.285       .  A
O1923     Zr1928   2.403       .  S
O1923     Zr1930   2.384       .  S
O1924     Zr1929   2.398       .  S
O1924     Zr1930   2.387       .  S
O1924      H1959   0.969       .  S
O1925     Zr1928   2.402       .  S
O1925     Zr1945   2.403       .  S
O1925      H1962   0.968       .  S
O1926     Zr1929   2.327       .  S
O1926     Zr1945   2.291       .  S
Zr1927     O1952   2.437       .  S
Zr1927     O1946   2.405       .  S
Zr1927     O1954   2.422       .  S
Zr1927     O1942   2.411       .  S
Zr1927     O1933   2.402       .  S
Zr1927     O1934   2.403       .  S
Zr1927     O1935   2.378       .  S
Zr1927     O1936   2.377       .  S
Zr1928     O1947   2.442       .  S
Zr1928     O1940   2.433       .  S
Zr1928     O1941   2.408       .  S
Zr1928     O1934   2.395       .  S
Zr1928     O1935   2.371       .  S
Zr1929     O1931   2.446       .  S
Zr1929     O1953   2.453       .  S
Zr1929     O1955   2.513       .  S
Zr1929     O1933   2.382       .  S
Zr1929     O1936   2.359       .  S
Zr1930     O1956   2.437       .  S
Zr1930     O1957   2.436       .  S
Zr1930     O1932   2.438       .  S
Zr1930     O1933   2.423       .  S
Zr1930     O1934   2.416       .  S
O1931      H1968   0.989       .  S
O1932      H1963   0.991       .  S
O1932      H1977   0.988       .  S
O1934      H1960   0.975       .  S
O1935     Zr1945   2.358       .  S
O1936     Zr1945   2.387       .  S
O1936      H1961   0.965       .  S
C1937      C2278   1.480       .  S
C1938      C2250   1.484       .  S
C1939      C2126   1.517       .  S
O1940      H1976   0.990       .  S
O1941      C1943   1.278       .  A
O1942      C1943   1.284       .  A
C1943      C2141   1.464       .  S
O1944     Zr1945   2.435       .  S
O1944      H1973   0.989       .  S
Zr1945     O1948   2.453       .  S
Zr1945     O1949   2.434       .  S
Zr1945     O1950   2.406       .  S
O1946      C1951   1.279       .  A
O1947      H1964   0.988       .  S
O1947      H1979   0.992       .  S
O1948      H1965   0.991       .  S
O1949      H1969   0.994       .  S
O1949      H1978   0.987       .  S
O1950      C1951   1.282       .  A
C1951      C2166   1.451       .  S
O1952      H1971   0.990       .  S
O1952      H1975   0.989       .  S
O1953      H1967   0.992       .  S
O1953      H1974   0.989       .  S
O1954      C1958   1.281       .  A
O1955      C1958   1.295       .  A
O1956      H1966   0.990       .  S
O1957      H1970   0.988       .  S
C1958      C2117   1.493       .  S
Zr1981     O1982   2.436       .  S
Zr1981     O1983   2.492       .  S
Zr1981     O1984   2.588       .  S
Zr1981     O1987   2.538       .  S
Zr1981     O1989   2.386       .  S
Zr1981     O1990   2.431       .  S
Zr1981     O1991   2.413       .  S
Zr1981     O1992   2.374       .  S
O1982      H2038   0.989       .  S
O1982      H2046   0.991       .  S
O1983      C2003   1.294       .  A
O1984      C2005   1.315       .  A
O1985     Zr1995   2.427       .  S
O1985      C2004   1.284       .  A
O1986     Zr1994   2.391       .  S
O1986      C2005   1.270       .  A
O1987      C2004   1.309       .  A
O1988     Zr1996   2.425       .  S
O1988      C2003   1.281       .  A
O1989     Zr1994   2.400       .  S
O1989     Zr1996   2.395       .  S
O1990     Zr1995   2.411       .  S
O1990     Zr1996   2.387       .  S
O1990      H2025   0.969       .  S
O1991     Zr1994   2.417       .  S
O1991     Zr2011   2.400       .  S
O1991      H2028   0.966       .  S
O1992     Zr1995   2.385       .  S
O1992     Zr2011   2.332       .  S
Zr1993     O2018   2.436       .  S
Zr1993     O2012   2.401       .  S
Zr1993     O2020   2.412       .  S
Zr1993     O2008   2.399       .  S
Zr1993     O1999   2.397       .  S
Zr1993     O2000   2.402       .  S
Zr1993     O2001   2.382       .  S
Zr1993     O2002   2.379       .  S
Zr1994     O2013   2.450       .  S
Zr1994     O2006   2.434       .  S
Zr1994     O2007   2.419       .  S
Zr1994     O2000   2.391       .  S
Zr1994     O2001   2.376       .  S
Zr1995     O1997   2.439       .  S
Zr1995     O2019   2.437       .  S
Zr1995     O2021   2.508       .  S
Zr1995     O1999   2.379       .  S
Zr1995     O2002   2.361       .  S
Zr1996     O2022   2.435       .  S
Zr1996     O2023   2.437       .  S
Zr1996     O1998   2.437       .  S
Zr1996     O1999   2.413       .  S
Zr1996     O2000   2.413       .  S
O1997      H2034   0.990       .  S
O1998      H2029   0.991       .  S
O1998      H2043   0.989       .  S
O2000      H2026   0.969       .  S
O2001     Zr2011   2.355       .  S
O2002     Zr2011   2.385       .  S
O2002      H2027   0.964       .  S
C2003      C2381   1.488       .  S
C2004      C2434   1.484       .  S
C2005      C2113   1.522       .  S
O2006      H2042   0.990       .  S
O2007      C2009   1.278       .  A
O2008      C2009   1.281       .  A
C2009      C2130   1.454       .  S
O2010     Zr2011   2.435       .  S
O2010      H2039   0.990       .  S
Zr2011     O2014   2.434       .  S
Zr2011     O2015   2.439       .  S
Zr2011     O2016   2.386       .  S
O2012      C2017   1.276       .  A
O2013      H2030   0.997       .  S
O2013      H2045   0.984       .  S
O2014      H2031   0.990       .  S
O2015      H2035   0.989       .  S
O2015      H2044   0.990       .  S
O2016      C2017   1.280       .  A
C2017      C2158   1.448       .  S
O2018      H2037   0.990       .  S
O2018      H2041   0.990       .  S
O2019      H2033   0.989       .  S
O2019      H2040   0.991       .  S
O2020      C2024   1.280       .  A
O2021      C2024   1.295       .  A
O2022      H2032   0.988       .  S
O2023      H2036   0.989       .  S
C2024      C2122   1.495       .  S
Zr2047     O2048   2.443       .  S
Zr2047     O2049   2.502       .  S
Zr2047     O2050   2.600       .  S
Zr2047     O2053   2.526       .  S
Zr2047     O2055   2.389       .  S
Zr2047     O2056   2.424       .  S
Zr2047     O2057   2.405       .  S
Zr2047     O2058   2.322       .  S
O2048      H2104   0.990       .  S
O2048      H2112   0.991       .  S
O2049      C2069   1.295       .  A
O2050      C2071   1.317       .  A
O2051     Zr2061   2.404       .  S
O2051      C2070   1.280       .  A
O2052     Zr2060   2.381       .  S
O2052      C2071   1.271       .  A
O2053      C2070   1.307       .  A
O2054     Zr2062   2.418       .  S
O2054      C2069   1.280       .  A
O2055     Zr2060   2.400       .  S
O2055     Zr2062   2.388       .  S
O2056     Zr2061   2.398       .  S
O2056     Zr2062   2.392       .  S
O2056      H2091   0.976       .  S
O2057     Zr2060   2.399       .  S
O2057     Zr2077   2.391       .  S
O2057      H2094   0.967       .  S
O2058     Zr2061   2.335       .  S
O2058     Zr2077   2.299       .  S
Zr2059     O2084   2.436       .  S
Zr2059     O2078   2.407       .  S
Zr2059     O2086   2.422       .  S
Zr2059     O2074   2.387       .  S
Zr2059     O2065   2.393       .  S
Zr2059     O2066   2.401       .  S
Zr2059     O2067   2.383       .  S
Zr2059     O2068   2.371       .  S
Zr2060     O2079   2.444       .  S
Zr2060     O2072   2.433       .  S
Zr2060     O2073   2.402       .  S
Zr2060     O2066   2.394       .  S
Zr2060     O2067   2.379       .  S
Zr2061     O2063   2.446       .  S
Zr2061     O2085   2.450       .  S
Zr2061     O2087   2.513       .  S
Zr2061     O2065   2.382       .  S
Zr2061     O2068   2.351       .  S
Zr2062     O2088   2.437       .  S
Zr2062     O2089   2.436       .  S
Zr2062     O2064   2.438       .  S
Zr2062     O2065   2.419       .  S
Zr2062     O2066   2.399       .  S
O2063      H2100   0.988       .  S
O2064      H2095   0.991       .  S
O2064      H2109   0.989       .  S
O2066      H2092   0.968       .  S
O2067     Zr2077   2.361       .  S
O2068     Zr2077   2.376       .  S
O2068      H2093   0.960       .  S
C2069      C2350   1.487       .  S
C2070      C2290   1.487       .  S
C2071      C2114   1.522       .  S
O2072      H2108   0.990       .  S
O2073      C2075   1.277       .  A
O2074      C2075   1.279       .  A
C2075      C2170   1.448       .  S
O2076     Zr2077   2.433       .  S
O2076      H2105   0.990       .  S
Zr2077     O2080   2.454       .  S
Zr2077     O2081   2.436       .  S
Zr2077     O2082   2.403       .  S
O2078      C2083   1.277       .  A
O2079      H2096   0.986       .  S
O2079      H2111   0.994       .  S
O2080      H2097   0.991       .  S
O2081      H2101   0.989       .  S
O2081      H2110   0.991       .  S
O2082      C2083   1.282       .  A
C2083      C2138   1.448       .  S
O2084      H2103   0.990       .  S
O2084      H2107   0.989       .  S
O2085      H2099   0.990       .  S
O2085      H2106   0.991       .  S
O2086      C2090   1.283       .  A
O2087      C2090   1.295       .  A
O2088      H2098   0.988       .  S
O2089      H2102   0.989       .  S
C2090      C2118   1.506       .  S
C2113      C2114   1.388       .  D
C2113      H2115   1.086       .  S
C2114      H2116   1.086       .  S
C2117      C2118   1.354   1_455  D
C2117      H2119   1.086       .  S
C2118      H2120   1.086       .  S
C2121      C2122   1.352       .  D
C2121      H2123   1.088       .  S
C2122      H2124   1.086       .  S
C2125      C2126   1.384       .  D
C2125      H2127   1.086       .  S
C2126      H2128   1.086       .  S
C2129      C2130   1.338       .  D
C2129      H2131   1.088       .  S
C2130      H2132   1.087       .  S
C2133      C2134   1.337       .  D
C2133      H2135   1.088       .  S
C2134      H2136   1.089       .  S
C2137      C2138   1.339       .  D
C2137      H2139   1.088       .  S
C2138      H2140   1.087       .  S
C2141      C2142   1.337       .  D
C2141      H2143   1.088       .  S
C2142      H2144   1.088       .  S
C2145      C2146   1.382       .  D
C2145      H2147   1.086       .  S
C2146      H2148   1.086       .  S
C2149      C2150   1.353       .  D
C2149      H2151   1.086       .  S
C2150      H2152   1.086       .  S
C2153      C2154   1.335       .  D
C2153      H2155   1.088       .  S
C2154      H2156   1.088       .  S
C2157      C2158   1.339       .  D
C2157      H2159   1.088       .  S
C2158      H2160   1.088       .  S
C2161      C2162   1.354       .  D
C2161      H2163   1.086   1_455  S
C2162      H2164   1.086       .  S
C2165      C2166   1.337       .  D
C2165      H2167   1.088       .  S
C2166      H2168   1.089       .  S
C2169      C2170   1.339       .  D
C2169      H2171   1.088       .  S
C2170      H2172   1.087       .  S
C2173      C2174   1.382       .  D
C2173      H2175   1.086       .  S
C2174      H2176   1.085       .  S
C2177      C2178   1.380       .  D
C2177      H2179   1.086       .  S
C2178      H2180   1.086       .  S
C2181      C2182   1.348       .  D
C2181      H2183   1.086       .  S
C2182      H2184   1.086       .  S
C2185      C2186   1.356   1_655  D
C2185      H2187   1.086       .  S
C2186      H2188   1.086       .  S
C2189      C2190   1.382       .  D
C2189      H2191   1.086       .  S
C2190      H2192   1.085       .  S
C2193      C2194   1.337       .  D
C2193      H2195   1.088       .  S
C2194      H2196   1.088       .  S
C2197      C2198   1.338       .  D
C2197      H2199   1.088       .  S
C2198      H2200   1.088       .  S
C2201      C2202   1.336       .  D
C2201      H2203   1.087       .  S
C2202      H2204   1.088       .  S
C2205      C2206   1.340       .  D
C2205      H2207   1.087       .  S
C2206      H2208   1.089       .  S
C2209      C2210   1.386       .  D
C2209      H2211   1.085       .  S
C2210      H2212   1.086       .  S
C2213      C2214   1.349       .  D
C2213      H2215   1.086   1_455  S
C2214      H2216   1.086       .  S
C2217      C2218   1.341       .  D
C2217      H2219   1.088       .  S
C2218      H2220   1.088       .  S
C2221      C2222   1.335       .  D
C2221      H2223   1.087       .  S
C2222      H2224   1.088       .  S
C2225      C2226   1.337       .  D
C2225      H2227   1.087       .  S
C2226      H2228   1.088       .  S
C2229      C2230   1.355       .  D
C2229      H2231   1.085       .  S
C2230      H2232   1.086       .  S
C2233      C2234   1.341       .  D
C2233      H2235   1.087       .  S
C2234      H2236   1.088       .  S
C2237      C2238   1.386       .  D
C2237      H2239   1.086       .  S
C2238      H2240   1.086       .  S
C2241      C2242   1.369       .  D
C2241      H2243   1.086       .  S
C2242      H2244   1.084       .  S
C2245      C2246   1.351       .  D
C2245      H2247   1.085       .  S
C2246      H2248   1.089       .  S
C2249      C2250   1.370       .  D
C2249      H2251   1.086       .  S
C2250      H2252   1.086       .  S
C2253      C2254   1.352       .  D
C2253      H2255   1.086       .  S
C2254      H2256   1.086       .  S
C2257      C2258   1.384       .  D
C2257      H2259   1.086       .  S
C2258      H2260   1.085       .  S
C2261      C2262   1.365       .  D
C2261      H2263   1.084   1_545  S
C2262      H2264   1.086       .  S
C2265      C2266   1.344       .  D
C2265      H2267   1.086       .  S
C2266      H2268   1.086   1_554  S
C2269      C2270   1.337       .  D
C2269      H2271   1.088       .  S
C2270      H2272   1.088       .  S
C2273      C2274   1.368       .  D
C2273      H2275   1.086       .  S
C2274      H2276   1.086       .  S
C2277      C2278   1.348       .  D
C2277      H2279   1.086       .  S
C2278      H2280   1.088   1_545  S
C2281      C2282   1.341       .  D
C2281      H2283   1.089       .  S
C2282      H2284   1.087       .  S
C2285      C2286   1.385       .  D
C2285      H2287   1.086       .  S
C2286      H2288   1.086       .  S
C2289      C2290   1.371       .  D
C2289      H2291   1.086       .  S
C2290      H2292   1.084       .  S
C2293      C2294   1.346       .  D
C2293      H2295   1.090   1_545  S
C2294      H2296   1.085       .  S
C2297      C2298   1.350       .  D
C2297      H2299   1.086       .  S
C2298      H2300   1.086       .  S
C2301      C2302   1.340       .  D
C2301      H2303   1.088       .  S
C2302      H2304   1.088       .  S
C2305      C2306   1.374   1_645  D
C2305      H2307   1.086       .  S
C2306      H2308   1.085       .  S
C2309      C2310   1.351       .  D
C2309      H2311   1.089       .  S
C2310      H2312   1.085   1_565  S
C2313      C2314   1.333       .  D
C2313      H2315   1.088       .  S
C2314      H2316   1.088       .  S
C2317      C2318   1.383       .  D
C2317      H2319   1.086       .  S
C2318      H2320   1.086       .  S
C2321      C2322   1.350       .  D
C2321      H2323   1.086       .  S
C2322      H2324   1.086   1_455  S
C2325      C2326   1.372   1_554  D
C2325      H2327   1.086       .  S
C2326      H2328   1.086       .  S
C2329      C2330   1.343       .  D
C2329      H2331   1.087       .  S
C2330      H2332   1.086   1_556  S
C2333      C2334   1.350       .  D
C2333      H2335   1.086       .  S
C2334      H2336   1.086       .  S
C2337      C2338   1.343       .  D
C2337      H2339   1.088       .  S
C2338      H2340   1.088       .  S
C2341      C2342   1.337       .  D
C2341      H2343   1.087       .  S
C2342      H2344   1.089       .  S
C2345      C2346   1.370       .  D
C2345      H2347   1.085       .  S
C2346      H2348   1.086       .  S
C2349      C2350   1.349       .  D
C2349      H2351   1.087       .  S
C2350      H2352   1.086       .  S
C2353      C2354   1.359       .  D
C2353      H2355   1.085       .  S
C2354      H2356   1.087       .  S
C2357      C2358   1.340       .  D
C2357      H2359   1.087       .  S
C2358      H2360   1.088       .  S
C2361      C2362   1.342       .  D
C2361      H2363   1.087       .  S
C2362      H2364   1.088       .  S
C2365      C2366   1.387       .  D
C2365      H2367   1.086       .  S
C2366      H2368   1.086       .  S
C2369      C2370   1.366       .  D
C2369      H2371   1.086       .  S
C2370      H2372   1.086       .  S
C2373      C2374   1.349       .  D
C2373      H2375   1.087       .  S
C2374      H2376   1.087       .  S
C2377      C2378   1.367       .  D
C2377      H2379   1.085       .  S
C2378      H2380   1.086       .  S
C2381      C2382   1.350       .  D
C2381      H2383   1.086       .  S
C2382      H2384   1.086       .  S
C2385      C2386   1.386       .  D
C2385      H2387   1.086       .  S
C2386      H2388   1.085       .  S
C2389      C2390   1.365       .  D
C2389      H2391   1.086       .  S
C2390      H2392   1.086       .  S
C2393      C2394   1.354   1_545  D
C2393      H2395   1.086       .  S
C2394      H2396   1.086       .  S
C2397      C2398   1.341       .  D
C2397      H2399   1.088       .  S
C2398      H2400   1.088       .  S
C2401      C2402   1.364   1_545  D
C2401      H2403   1.085       .  S
C2402      H2404   1.086       .  S
C2405      C2406   1.350       .  D
C2405      H2407   1.086       .  S
C2406      H2408   1.086       .  S
C2409      C2410   1.341       .  D
C2409      H2411   1.089       .  S
C2410      H2412   1.087       .  S
C2413      C2414   1.383       .  D
C2413      H2415   1.086       .  S
C2414      H2416   1.086       .  S
C2417      C2418   1.370       .  D
C2417      H2419   1.085       .  S
C2418      H2420   1.086       .  S
C2421      C2422   1.346       .  D
C2421      H2423   1.087       .  S
C2422      H2424   1.087       .  S
C2425      C2426   1.356   1_655  D
C2425      H2427   1.086       .  S
C2426      H2428   1.086       .  S
C2429      C2430   1.341       .  D
C2429      H2431   1.088       .  S
C2430      H2432   1.088       .  S
C2433      C2434   1.369       .  D
C2433      H2435   1.086       .  S
C2434      H2436   1.085       .  S
C2437      C2438   1.346       .  D
C2437      H2439   1.086       .  S
C2438      H2440   1.089       .  S
C2441      C2442   1.354       .  D
C2441      H2443   1.086       .  S
C2442      H2444   1.086       .  S
C2445      C2446   1.333       .  D
C2445      H2447   1.089       .  S
C2446      H2448   1.088       .  S
C2449      C2450   1.384       .  D
C2449      H2451   1.086       .  S
C2450      H2452   1.086       .  S
C2453      C2454   1.366       .  D
C2453      H2455   1.084       .  S
C2454      H2456   1.086       .  S
C2457      C2458   1.346   1_545  D
C2457      H2459   1.087       .  S
C2458      H2460   1.086       .  S
C2461      C2462   1.355       .  D
C2461      H2463   1.085       .  S
C2462      H2464   1.088       .  S
C2465      C2466   1.339       .  D
C2465      H2467   1.087       .  S
C2466      H2468   1.088       .  S
C2469      C2470   1.337       .  D
C2469      H2471   1.088       .  S
C2470      H2472   1.088       .  S
C2473      C2474   1.368       .  D
C2473      H2475   1.086       .  S
C2474      H2476   1.086   1_545  S
C2477      C2478   1.350       .  D
C2477      H2479   1.087       .  S
C2478      H2480   1.087       .  S
C2481      C2482   1.338       .  D
C2481      H2483   1.088       .  S
C2482      H2484   1.088       .  S
C2485      C2486   1.355       .  D
C2485      H2487   1.086   1_455  S
C2486      H2488   1.086       .  S
C2489      C2490   1.342       .  D
C2489      H2491   1.089       .  S
C2490      H2492   1.087       .  S
C2493      C2494   1.383       .  D
C2493      H2495   1.086       .  S
C2494      H2496   1.086       .  S
