geometry optimzed in LAMMPS
_audit_creation_date              2020-12-01 
_audit_creation_method            'lammps2cif' 
_symmetry_space_group_name_H-M    'P1' 
_symmetry_Int_Tables_number       1 
_symmetry_cell_setting            triclinic 
loop_ 
_symmetry_equiv_pos_as_xyz 
  x,y,z 
_cell_length_a                    44.61677832 
_cell_length_b                    44.67378068548807 
_cell_length_c                    30.105045991628838 
_cell_angle_alpha                 89.7120048823535 
_cell_angle_beta                  89.65078477275104 
_cell_angle_gamma                 120.08269875385906 
loop_ 
_atom_site_label 
_atom_site_type_symbol 
_atom_site_fract_x 
_atom_site_fract_y 
_atom_site_fract_z 
_atom_site_charge 
Fe1        Fe  0.61345585  0.13671297  0.03532114     1.65800
Fe2        Fe  0.54061535  0.06721220  0.00226105     1.73200
Fe3        Fe  0.61911031  0.08169140  0.96533501     1.54400
O4          O  0.66077535  0.13317576  0.95647546    -0.81400
O5          O  0.54571278  0.02568377  0.01838463    -0.79700
O6          O  0.63737987  0.16387720  0.97931287    -0.83900
O7          O  0.65438924  0.12862840  0.05109355    -0.78800
O8          O  0.59567080  0.08549237  0.90938851    -0.80500
O9          O  0.53634106  0.07348989  0.07062400    -0.83300
C10         C  0.66211420  0.10493877  0.04603210     0.97500
C11         C  0.66168923  0.16201193  0.96068135     1.04900
O12         O  0.59082360  0.09514345  0.00115902    -1.12300
O13         O  0.53304671  0.10749750  0.98638988    -0.74700
O14         O  0.57652188  0.15076098  0.02237597    -0.78200
O15         O  0.64485244  0.07885148  0.02097638    -0.78900
C16         C  0.54954461  0.13864625  0.99859304     0.96400
O17         O  0.58988280  0.11112588  0.09283344    -0.76800
O18         O  0.54025577  0.05894721  0.93314996    -0.82000
C19         C  0.55197508  0.01151191  0.98659983     0.99000
C20         C  0.56326353  0.07001261  0.90214232     1.04900
O21         O  0.58047108  0.02817394  0.96499272    -0.77700
C22         C  0.55861331  0.08880766  0.10101281     1.03200
Fe23       Fe  0.51904778  0.13257666  0.54376504     1.65800
Fe24       Fe  0.52559213  0.06670343  0.50315232     1.73200
Fe25       Fe  0.46247351  0.08237663  0.46658805     1.54400
O26         O  0.43076030  0.07697376  0.52062411    -0.81400
O27         O  0.52061330  0.06194239  0.43352283    -0.79700
O28         O  0.46928479  0.12399340  0.55719313    -0.83900
O29         O  0.52522750  0.16397128  0.49143176    -0.78800
O30         O  0.44756299  0.02917697  0.46282103    -0.80500
O31         O  0.57347429  0.10846368  0.49083380    -0.83300
C32         C  0.50076767  0.16255084  0.46905084     0.97500
C33         C  0.43812452  0.10155316  0.54789130     1.04900
O34         O  0.50249609  0.09389297  0.50450148    -1.12300
O35         O  0.53399789  0.06924465  0.57191209    -0.74700
O36         O  0.51375344  0.10247886  0.59775514    -0.78200
O37         O  0.47331417  0.13403761  0.46104654    -0.78900
C38         C  0.52410578  0.08106886  0.60371493     0.96400
O39         O  0.57085955  0.14752833  0.53383751    -0.76800
O40         O  0.47858580  0.02411514  0.51555101    -0.82000
C41         C  0.51004997  0.07464542  0.40331088     0.99000
C42         C  0.45873210  0.01156780  0.48300177     1.04900
O43         O  0.49212989  0.08889936  0.41146765    -0.77700
C44         C  0.58704028  0.13830170  0.50740530     1.03200
Fe45       Fe  0.51620688  0.35175643  0.04750023     1.65800
Fe46       Fe  0.52518988  0.42673013  0.01131591     1.73200
Fe47       Fe  0.45958614  0.35045386  0.97320242     1.54400
O48         O  0.46800516  0.30848761  0.96417289    -0.81400
O49         O  0.47930722  0.42435590  0.02469453    -0.79700
O50         O  0.51988956  0.32673460  0.99329721    -0.83900
O51         O  0.46612269  0.31244917  0.06125358    -0.78800
O52         O  0.48906018  0.37417860  0.91816768    -0.80500
O53         O  0.53307478  0.42989046  0.08002360    -0.83300
C54         C  0.43530687  0.30574809  0.05394335     0.97500
C55         C  0.49495779  0.30599388  0.96949254     1.04900
O56         O  0.50051036  0.37644375  0.01067702    -1.12300
O57         O  0.57230079  0.43125794  0.99809273    -0.74700
O58         O  0.56830685  0.38683307  0.03693525    -0.78200
O59         O  0.42832588  0.32390412  0.02755396    -0.78900
C60         C  0.58502770  0.41337754  0.01220451     0.96400
O61         O  0.51322005  0.37571875  0.10369359    -0.76800
O62         O  0.52025718  0.42889174  0.94194953    -0.82000
C63         C  0.45932050  0.41874128  0.99267116     0.99000
C64         C  0.50821548  0.40645808  0.91098330     1.04900
O65         O  0.44659819  0.39022174  0.97183096    -0.77700
C66         C  0.52344712  0.40725741  0.11096930     1.03200
Fe67       Fe  0.61466303  0.45265693  0.54918973     1.65800
Fe68       Fe  0.54105867  0.44555789  0.51180707     1.73200
Fe69       Fe  0.61897859  0.50658686  0.46801858     1.54400
O70         O  0.64718746  0.54034036  0.51911676    -0.81400
O71         O  0.53904920  0.44736475  0.44193316    -0.79700
O72         O  0.65581252  0.50253138  0.55808898    -0.83900
O73         O  0.63822433  0.44465911  0.49646160    -0.78800
O74         O  0.58035245  0.52138452  0.46308030    -0.80500
O75         O  0.53386274  0.39687720  0.50425836    -0.83300
C76         C  0.66105217  0.46836966  0.47235556     0.97500
C77         C  0.66438958  0.53343356  0.54721739     1.04900
O78         O  0.59141148  0.46817956  0.50977907    -1.12300
O79         O  0.53791692  0.44085122  0.58131395    -0.74700
O80         O  0.59193933  0.45979289  0.60402883    -0.78200
O81         O  0.65988225  0.49555741  0.46251851    -0.78900
C82         C  0.56059781  0.45070678  0.61175180     0.96400
O83         O  0.57757054  0.40069354  0.54394450    -0.76800
O84         O  0.54598776  0.49308288  0.51918976    -0.82000
C85         C  0.56131468  0.45696891  0.41021037     0.99000
C86         C  0.55183775  0.51077418  0.48426803     1.04900
O87         O  0.59386768  0.47471853  0.41599188    -0.77700
C88         C  0.55074395  0.38370728  0.52040313     1.03200
Fe89       Fe  0.83701181  0.35382541  0.55194533     1.65800
Fe90       Fe  0.90451399  0.42774082  0.51645841     1.73200
Fe91       Fe  0.88913328  0.35101513  0.47295604     1.54400
O92         O  0.89231217  0.32128337  0.52434949    -0.81400
O93         O  0.91083606  0.43140731  0.44663626    -0.79700
O94         O  0.84440629  0.31187922  0.56064753    -0.83900
O95         O  0.80694114  0.33195705  0.49793869    -0.78800
O96         O  0.94277438  0.38905481  0.47083891    -0.80500
O97         O  0.86347073  0.43544450  0.50652239    -0.83300
C98         C  0.80897839  0.31061358  0.47255655     0.97500
C99         C  0.86671525  0.30317265  0.55060149     1.04900
O100        O  0.87678359  0.37764419  0.51365108    -1.12300
O101        O  0.90052584  0.42947112  0.58566246    -0.74700
O102        O  0.86582203  0.37487376  0.60764495    -0.78200
O103        O  0.83745196  0.31141394  0.46469477    -0.78900
C104        C  0.88756394  0.40615691  0.61582870     0.96400
O105        O  0.82315970  0.39171024  0.54688834    -0.76800
O106        O  0.94585553  0.42128105  0.52707334    -0.82000
C107        C  0.89896097  0.40976143  0.41471733     0.99000
C108        C  0.95944210  0.41678556  0.49306724     1.04900
O109        O  0.88450857  0.37724067  0.42033847    -0.77700
C110        C  0.83322263  0.41860560  0.52278631     1.03200
Fe111      Fe  0.83451342  0.45054036  0.05039628     1.65800
Fe112      Fe  0.90295290  0.44559157  0.01484094     1.73200
Fe113      Fe  0.88648271  0.50671574  0.97155828     1.54400
O114        O  0.83467816  0.49396900  0.96245511    -0.81400
O115        O  0.94488737  0.49336331  0.02443797    -0.79700
O116        O  0.80465846  0.44295824  0.99635953    -0.83900
O117        O  0.84171366  0.49975732  0.06014972    -0.78800
O118        O  0.88274679  0.47645868  0.91893878    -0.80500
O119        O  0.89899892  0.43934537  0.08405164    -0.83300
C120        C  0.86349685  0.53101415  0.04986263     0.97500
C121        C  0.80644238  0.46599901  0.97030668     1.04900
O122        O  0.87477200  0.46762420  0.01242800    -1.12300
O123        O  0.86197807  0.39679493  0.00485100    -0.74700
O124        O  0.82046956  0.39887145  0.04370694    -0.78200
O125        O  0.88882144  0.53908406  0.02291735    -0.78900
C126        C  0.83130143  0.38282888  0.01973479     0.96400
O127        O  0.86269140  0.45694730  0.10670979    -0.76800
O128        O  0.90939183  0.44882463  0.94534294    -0.82000
C129        C  0.95762184  0.51221492  0.99047064     0.99000
C130        C  0.89783701  0.45900638  0.91339289     1.04900
O131        O  0.94027478  0.52333098  0.96962096    -0.77700
C132        C  0.88494749  0.44798158  0.11459914     1.03200
Fe133      Fe  0.49585989  0.78018588  0.37174481     1.65800
Fe134      Fe  0.56304480  0.77528830  0.33241442     1.75000
Fe135      Fe  0.54628857  0.83677687  0.29295111     1.54400
O136        O  0.49425184  0.82515209  0.28763001    -0.81400
O137        O  0.60464636  0.82272291  0.34392973    -0.79700
O138        O  0.46545692  0.77301630  0.31862421    -0.83900
O139        O  0.50371806  0.82960046  0.38289620    -0.78800
O140        O  0.54022969  0.80673194  0.23932849    -0.80500
O141        O  0.55945885  0.76698859  0.40138458    -0.83300
C142        C  0.52633042  0.86079127  0.37335841     0.97500
C143        C  0.46610097  0.79714144  0.29604030     1.04900
O144        O  0.53508786  0.79731615  0.33249257    -1.12300
O145        O  0.52193928  0.72713904  0.32127280    -0.74700
O146        O  0.48181801  0.72858710  0.36415296    -0.78200
O147        O  0.55116415  0.86853403  0.34583252    -0.78900
C148        C  0.49193054  0.71290612  0.33832349     0.96400
O149        O  0.52519069  0.78632564  0.42649190    -0.76800
O150        O  0.56915336  0.78058746  0.26259733    -0.82000
C151        C  0.61762188  0.84204835  0.31049734     0.99000
C152        C  0.55641486  0.79059940  0.23178501     1.04900
O153        O  0.59991055  0.85232451  0.28877018    -0.77700
C154        C  0.54676752  0.77627046  0.43291932     1.03200
Fe155      Fe  0.50546105  0.68661251  0.87507763     1.65800
Fe156      Fe  0.56929629  0.75984257  0.83330378     1.73200
Fe157      Fe  0.55484990  0.68264508  0.79343935     1.54400
O158        O  0.55973152  0.65411677  0.84517296    -0.81400
O159        O  0.57520454  0.76200185  0.76369332    -0.79700
O160        O  0.51255409  0.64451183  0.88315127    -0.83900
O161        O  0.47340796  0.66410288  0.82335252    -0.78800
O162        O  0.60844934  0.72136970  0.79047042    -0.80500
O163        O  0.52607174  0.76349277  0.82243129    -0.83300
C164        C  0.47443028  0.64273923  0.79695233     0.97500
C165        C  0.53504751  0.63623941  0.87263404     1.04900
O166        O  0.54340733  0.70972595  0.83387181    -1.12300
O167        O  0.56566946  0.76353895  0.90254917    -0.74700
O168        O  0.53722963  0.70916340  0.92780004    -0.78200
O169        O  0.50251751  0.64302935  0.78742851    -0.78900
C170        C  0.55616684  0.74132006  0.93406013     0.96400
O171        O  0.49131455  0.72432230  0.87207890    -0.76800
O172        O  0.61298456  0.75724357  0.84366387    -0.82000
C173        C  0.56313811  0.73959617  0.73274967     0.99000
C174        C  0.62593705  0.74996850  0.81112431     1.04900
O175        O  0.54891888  0.70729626  0.73987674    -0.77700
C176        C  0.49757803  0.74765074  0.84324104     1.03200
Fe177      Fe  0.18219540  0.46775476  0.86879522     1.65800
Fe178      Fe  0.18834205  0.40133345  0.83050405     1.73200
Fe179      Fe  0.12465978  0.41585628  0.79365459     1.54400
O180        O  0.09337336  0.41184733  0.84756342    -0.81400
O181        O  0.18201486  0.39425487  0.76097290    -0.79700
O182        O  0.13275412  0.45988430  0.88155376    -0.83900
O183        O  0.18839931  0.49731260  0.81455156    -0.78800
O184        O  0.10975112  0.36234658  0.79222572    -0.80500
O185        O  0.23595353  0.44303048  0.81655719    -0.83300
C186        C  0.16373833  0.49602569  0.79284790     0.97500
C187        C  0.10141196  0.43730663  0.87355050     1.04900
O188        O  0.16503092  0.42816024  0.83119367    -1.12300
O189        O  0.19820492  0.40636967  0.89900581    -0.74700
O190        O  0.17710999  0.43907510  0.92427319    -0.78200
O191        O  0.13577300  0.46761085  0.78615381    -0.78900
C192        C  0.18896005  0.41894223  0.93069194     0.96400
O193        O  0.23394563  0.48225161  0.85985493    -0.76800
O194        O  0.14169250  0.35894108  0.84511107    -0.82000
C195        C  0.17122658  0.40655675  0.73048728     0.99000
C196        C  0.12117079  0.34528037  0.81338501     1.04900
O197        O  0.15386604  0.42139069  0.73863735    -0.77700
C198        C  0.25006818  0.47262442  0.83401941     1.03200
Fe199      Fe  0.28259588  0.46517355  0.36819847     1.65800
Fe200      Fe  0.20856042  0.40072073  0.33080578     1.73200
Fe201      Fe  0.28583567  0.41255268  0.29122904     1.54400
O202        O  0.32633313  0.46383554  0.28191999    -0.81400
O203        O  0.21119997  0.35728985  0.34330184    -0.79700
O204        O  0.30599727  0.49501406  0.31384316    -0.83900
O205        O  0.32381478  0.45684945  0.37854141    -0.78800
O206        O  0.26177801  0.41769579  0.23679086    -0.80500
O207        O  0.20483692  0.40514905  0.39984995    -0.83300
C208        C  0.33210529  0.43410269  0.36987856     0.97500
C209        C  0.32736088  0.49246758  0.28871461     1.04900
O210        O  0.25888988  0.42602310  0.33000450    -1.12300
O211        O  0.20399741  0.44357055  0.31873780    -0.74700
O212        O  0.24601146  0.48071484  0.36247580    -0.78200
O213        O  0.31412384  0.40872423  0.34398542    -0.78900
C214        C  0.22039035  0.47271404  0.33724162     0.96400
O215        O  0.25921806  0.43585476  0.42369699    -0.76800
O216        O  0.20692762  0.39434902  0.26133495    -0.82000
C217        C  0.21753275  0.34336402  0.31120218     0.99000
C218        C  0.22962442  0.40496840  0.23006728     1.04900
O219        O  0.24659060  0.35937105  0.29060141    -0.77700
C220        C  0.22708622  0.41633738  0.43092136     1.03200
Fe221      Fe  0.17939079  0.69288210  0.39117446     1.65800
Fe222      Fe  0.18685910  0.76432870  0.34618880     1.73200
Fe223      Fe  0.12570551  0.68539217  0.30887382     1.54400
O224        O  0.13894646  0.64598848  0.30537906    -0.81400
O225        O  0.13953249  0.75939386  0.35662009    -0.79700
O226        O  0.18904160  0.66853217  0.34126364    -0.83900
O227        O  0.13016755  0.65056182  0.40111237    -0.78800
O228        O  0.15671927  0.70913264  0.25504308    -0.80500
O229        O  0.19431897  0.77028650  0.41488377    -0.83300
C230        C  0.09927846  0.64088282  0.38955561     0.97500
C231        C  0.16663363  0.64599916  0.31607780     1.04900
O232        O  0.16404213  0.71418402  0.34854427    -1.12300
O233        O  0.23460152  0.76993628  0.33592449    -0.74700
O234        O  0.23126812  0.73128938  0.38560472    -0.78200
O235        O  0.09218277  0.65777990  0.36118948    -0.78900
C236        C  0.24792245  0.75492627  0.35669989     0.96400
O237        O  0.16987498  0.71672462  0.44253547    -0.76800
O238        O  0.18300877  0.76443869  0.27646069    -0.82000
C239        C  0.12066764  0.75226460  0.32303894     0.99000
C240        C  0.17356551  0.74131441  0.24651567     1.04900
O241        O  0.11002944  0.72342008  0.30319367    -0.77700
C242        C  0.18211128  0.74887699  0.44724915     1.03200
Fe243      Fe  0.27739378  0.78225133  0.88493795     1.65800
Fe244      Fe  0.20612890  0.77814160  0.84549921     1.73200
Fe245      Fe  0.28503873  0.83688621  0.80255914     1.54400
O246        O  0.31524744  0.86986801  0.85302282    -0.81400
O247        O  0.20399220  0.78272818  0.77626085    -0.79700
O248        O  0.32093823  0.83083190  0.89322039    -0.83900
O249        O  0.29947402  0.77162432  0.83306603    -0.78800
O250        O  0.24903665  0.85512351  0.80020347    -0.80500
O251        O  0.19809769  0.72956505  0.83459953    -0.83300
C252        C  0.32166234  0.79331060  0.80626116     0.97500
C253        C  0.33139626  0.86198233  0.88146717     1.04900
O254        O  0.25620602  0.79907701  0.84417468    -1.12300
O255        O  0.20167596  0.77012222  0.91438565    -0.74700
O256        O  0.25561220  0.79216125  0.93874825    -0.78200
O257        O  0.32251123  0.82140725  0.79550885    -0.78900
C258        C  0.22369584  0.78074375  0.94559775     0.96400
O259        O  0.23768836  0.73096705  0.88059563    -0.76800
O260        O  0.21404932  0.82652395  0.85599483    -0.82000
C261        C  0.22591976  0.79174649  0.74437993     0.99000
C262        C  0.22076209  0.84521012  0.82177151     1.04900
O263        O  0.25838040  0.80642144  0.75026294    -0.77700
C264        C  0.21302912  0.71524671  0.85329567     1.03200
Fe265      Fe  0.16490914  0.12056152  0.70485716     1.65800
Fe266      Fe  0.23246156  0.11252551  0.67354170     1.73200
Fe267      Fe  0.22159078  0.17708434  0.62999016     1.54400
O268        O  0.17099209  0.16822731  0.61945120    -0.81400
O269        O  0.27539619  0.15882134  0.68527797    -0.79700
O270        O  0.13811996  0.11597177  0.64872806    -0.83900
O271        O  0.17464265  0.17059633  0.71548631    -0.78800
O272        O  0.21686520  0.14699913  0.57698811    -0.80500
O273        O  0.22690755  0.10622226  0.74269708    -0.83300
C274        C  0.19819835  0.20164600  0.70725063     0.97500
C275        C  0.14166287  0.14099955  0.62518144     1.04900
O276        O  0.20638887  0.13664154  0.66970122    -1.12300
O277        O  0.19069634  0.06479095  0.66265866    -0.74700
O278        O  0.14838840  0.06838278  0.69715473    -0.78200
O279        O  0.22447098  0.20908103  0.68223684    -0.78900
C280        C  0.15966647  0.05153787  0.67582454     0.96400
O281        O  0.19033995  0.12425098  0.76275297    -0.76800
O282        O  0.23988772  0.11594465  0.60374701    -0.82000
C283        C  0.29010815  0.17721508  0.65172024     0.99000
C284        C  0.22974413  0.12754338  0.57160799     1.04900
O285        O  0.27479082  0.18996114  0.62945657    -0.77700
C286        C  0.21232568  0.11518565  0.77213526     1.03200
Fe287      Fe  0.16047172  0.02195628  0.20729752     1.65800
Fe288      Fe  0.22942568  0.09579121  0.17282360     1.73200
Fe289      Fe  0.21558879  0.01845183  0.13357004     1.54400
O290        O  0.21823321  0.99076313  0.18786128    -0.81400
O291        O  0.23679972  0.09803403  0.10330974    -0.79700
O292        O  0.16923216  0.98122762  0.22145540    -0.83900
O293        O  0.13258904  0.99817732  0.15243341    -0.78800
O294        O  0.26891387  0.05664585  0.13278427    -0.80500
O295        O  0.18881316  0.10350775  0.16055909    -0.83300
C296        C  0.13559203  0.97615489  0.12972637     0.97500
C297        C  0.19255193  0.97324098  0.21425223     1.04900
O298        O  0.20174981  0.04556424  0.17125988    -1.12300
O299        O  0.22411528  0.09875099  0.24131575    -0.74700
O300        O  0.18652791  0.04506883  0.26426316    -0.78200
O301        O  0.16457403  0.97757996  0.12429513    -0.78900
C302        C  0.20906074  0.07620150  0.27194980     0.96400
O303        O  0.14556137  0.05859314  0.19606593    -0.76800
O304        O  0.27128673  0.09070272  0.18643980    -0.82000
C305        C  0.22592330  0.07588872  0.07192295     0.99000
C306        C  0.28553704  0.08459312  0.15451329     1.04900
O307        O  0.21194963  0.04343211  0.07850373    -0.77700
C308        C  0.15772452  0.08665729  0.17392375     1.03200
Fe309      Fe  0.95144370  0.79613569  0.71600464     1.65800
Fe310      Fe  0.87761042  0.73408762  0.67487402     1.73200
Fe311      Fe  0.95453245  0.74762625  0.63253644     1.54400
O312        O  0.99466623  0.79954861  0.62519555    -0.81400
O313        O  0.87967373  0.69005845  0.68469364    -0.79700
O314        O  0.97618585  0.82925827  0.66491190    -0.83900
O315        O  0.99206172  0.78682734  0.72380205    -0.78800
O316        O  0.92985439  0.75465164  0.58003888    -0.80500
O317        O  0.87322675  0.73710345  0.74394446    -0.83300
C318        C  0.00096390  0.76529350  0.71117358     0.97500
C319        C  0.99608857  0.82781341  0.63602635     1.04900
O320        O  0.92794703  0.75919329  0.67439329    -1.12300
O321        O  0.87490435  0.77784103  0.66450017    -0.74700
O322        O  0.91509791  0.81222913  0.71237613    -0.78200
O323        O  0.98366114  0.74185869  0.68260498    -0.78900
C324        C  0.89134868  0.80622188  0.68466137     0.96400
O325        O  0.92720076  0.76402997  0.76916572    -0.76800
O326        O  0.87525491  0.72873939  0.60553808    -0.82000
C327        C  0.88608223  0.67734270  0.65121579     0.99000
C328        C  0.89751504  0.74073002  0.57392645     1.04900
O329        O  0.91502918  0.69431021  0.63028190    -0.77700
C330        C  0.89483728  0.74626202  0.77559246     1.03200
Fe331      Fe  0.84732634  0.79945713  0.21408405     1.65800
Fe332      Fe  0.85398378  0.73299045  0.17548568     1.73200
Fe333      Fe  0.79228173  0.74911908  0.13548784     1.54400
O334        O  0.75938795  0.74307625  0.18808904    -0.81400
O335        O  0.85046551  0.72831867  0.10571781    -0.79700
O336        O  0.79716665  0.79010864  0.22549529    -0.83900
O337        O  0.85410109  0.83085291  0.16136938    -0.78800
O338        O  0.77770602  0.69586646  0.13146497    -0.80500
O339        O  0.90215592  0.77452407  0.16489235    -0.83300
C340        C  0.82990400  0.82940925  0.13839905     0.97500
C341        C  0.76625284  0.76761797  0.21517552     1.04900
O342        O  0.83132234  0.76053030  0.17519009    -1.12300
O343        O  0.86104985  0.73572048  0.24429576    -0.74700
O344        O  0.84169182  0.76995584  0.26917627    -0.78200
O345        O  0.80270113  0.80077908  0.12990719    -0.78900
C346        C  0.85198789  0.74857656  0.27574784     0.96400
O347        O  0.89943533  0.81480405  0.20529225    -0.76800
O348        O  0.80667412  0.69033169  0.18641108    -0.82000
C349        C  0.84105305  0.74155235  0.07479265     0.99000
C350        C  0.78805784  0.67798774  0.15275256     1.04900
O351        O  0.82357399  0.75642478  0.08195685    -0.77700
C352        C  0.91584379  0.80460613  0.18078613     1.03200
Fe353      Fe  0.85819999  0.02954061  0.71613769     1.65800
Fe354      Fe  0.85893872  0.09878129  0.67363430     1.73200
Fe355      Fe  0.80191616  0.01849531  0.63546599     1.54400
O356        O  0.81819272  0.98152037  0.63093289    -0.81400
O357        O  0.80991029  0.08914247  0.68499502    -0.79700
O358        O  0.86892806  0.00691726  0.66514957    -0.83900
O359        O  0.81007650  0.98524065  0.72739076    -0.78800
O360        O  0.83172216  0.04407073  0.58138649    -0.80500
O361        O  0.86644869  0.10485013  0.74227654    -0.83300
C362        C  0.77865486  0.97381632  0.71632063     0.97500
C363        C  0.84671974  0.98320931  0.64113445     1.04900
O364        O  0.83986992  0.04898351  0.67490866    -1.12300
O365        O  0.90841312  0.10909551  0.66260262    -0.74700
O366        O  0.90905650  0.07005307  0.70837488    -0.78200
O367        O  0.77000366  0.98958263  0.68817126    -0.78900
C368        C  0.92387447  0.09518034  0.68090110     0.96400
O369        O  0.84814265  0.05181080  0.76897384    -0.76800
O370        O  0.85447974  0.09890980  0.60399760    -0.82000
C371        C  0.79079795  0.08122978  0.65156047     0.99000
C372        C  0.84637564  0.07633852  0.57354027     1.04900
O373        O  0.78234371  0.05326489  0.63079305    -0.77700
C374        C  0.85682389  0.08319100  0.77433242     1.03200
Fe375      Fe  0.94624839  0.12281806  0.20788699     1.65800
Fe376      Fe  0.87205220  0.11505893  0.17320083     1.73200
Fe377      Fe  0.94912665  0.18021127  0.13279828     1.54400
O378        O  0.97705741  0.21127639  0.18572758    -0.81400
O379        O  0.86992309  0.12095056  0.10408746    -0.79700
O380        O  0.98708307  0.17238109  0.21916706    -0.83900
O381        O  0.96996953  0.11797508  0.15301654    -0.78800
O382        O  0.91007431  0.19429476  0.13347139    -0.80500
O383        O  0.86646810  0.06753144  0.15996548    -0.83300
C384        C  0.99170383  0.14273514  0.12900052     0.97500
C385        C  0.99512939  0.20352557  0.21101823     1.04900
O386        O  0.92237058  0.13922995  0.17118486    -1.12300
O387        O  0.86869295  0.10600644  0.24174173    -0.74700
O388        O  0.92307275  0.12724927  0.26442298    -0.78200
O389        O  0.99010972  0.17013096  0.12271891    -0.78900
C390        C  0.89127595  0.11606346  0.27225448     0.96400
O391        O  0.90983057  0.07075285  0.19979656    -0.76800
O392        O  0.87570118  0.16129865  0.18722106    -0.82000
C393        C  0.89220395  0.13293810  0.07235359     0.99000
C394        C  0.88159368  0.18172687  0.15525608     1.04900
O395        O  0.92458594  0.15159880  0.07835021    -0.77700
C396        C  0.88332613  0.05411667  0.17555981     1.03200
C397        C  0.88096744  0.13390723  0.95792357     0.30000
C398        C  0.89012370  0.14733140  0.91458970    -0.36300
C399        C  0.87247463  0.12410536  0.88032396     0.16000
C400        C  0.84772725  0.08999336  0.88834117     0.21800
C401        C  0.83768577  0.07692732  0.93169230    -0.34400
C402        C  0.85517803  0.10020070  0.96594883     0.15900
O403        O  0.89677781  0.14989297  0.99446129    -0.26400
C404        C  0.88049443  0.12637755  0.02633579     0.05700
C405        C  0.85408488  0.09504389  0.01074663    -0.31300
O406        O  0.83799735  0.07164258  0.85178949    -0.23200
C407        C  0.85629611  0.09432672  0.81986388    -0.03100
C408        C  0.87787858  0.12755758  0.83550048    -0.17600
H409        H  0.91083650  0.17344777  0.90804262     0.20400
H410        H  0.81896038  0.05004164  0.93820374     0.18800
H411        H  0.83816061  0.07138334  0.02930199     0.18700
H412        H  0.89685173  0.15005905  0.81707136     0.14600
C413        C  0.84426033  0.08449737  0.45852968     0.30000
C414        C  0.83124635  0.07350561  0.41578245    -0.36300
C415        C  0.85258939  0.09368621  0.38061309     0.16000
C416        C  0.88474952  0.12244204  0.38711576     0.21800
C417        C  0.89723778  0.13417278  0.42998592    -0.34400
C418        C  0.87567526  0.11416386  0.46524280     0.15900
O419        O  0.82996295  0.06774011  0.49575831    -0.26400
C420        C  0.85210439  0.08718613  0.52686200     0.05700
C421        C  0.88090303  0.11667875  0.51003162    -0.31300
O422        O  0.90214553  0.13481708  0.34962008    -0.23200
C423        C  0.88056246  0.11412727  0.31875902    -0.03100
C424        C  0.84914739  0.08833739  0.33600018    -0.17600
H425        H  0.80690875  0.05002713  0.41031535     0.20400
H426        H  0.92258858  0.15635924  0.43542943     0.18800
H427        H  0.90315110  0.13595029  0.52789783     0.18700
H428        H  0.82810898  0.06721237  0.31856129     0.14600
C429        C  0.86109700  0.91689057  0.12500047     0.30000
C430        C  0.88778098  0.95115987  0.12928590    -0.36300
C431        C  0.87773355  0.97499899  0.14139129     0.16000
C432        C  0.84358398  0.96615715  0.14761442     0.21800
C433        C  0.81664007  0.93166750  0.14290616    -0.34400
C434        C  0.82680374  0.90745405  0.13158594     0.15900
O435        O  0.86561059  0.89014837  0.12132973    -0.26400
C436        C  0.83395617  0.86287499  0.12515476     0.05700
C437        C  0.80854413  0.87200347  0.13118232    -0.31300
O438        O  0.84052381  0.99280518  0.16044055    -0.23200
C439        C  0.87321472  0.01854574  0.16332239    -0.03100
C440        C  0.89732375  0.00891219  0.15184574    -0.17600
H441        H  0.91480081  0.95836181  0.12615805     0.20400
H442        H  0.78985741  0.92398136  0.14978573     0.18800
H443        H  0.78156630  0.85520538  0.14013612     0.18700
H444        H  0.92531557  0.02476013  0.15118895     0.14600
C445        C  0.86005349  0.85987812  0.64800339     0.30000
C446        C  0.83605095  0.86872836  0.63139784    -0.36300
C447        C  0.84770758  0.90433931  0.62823459     0.16000
C448        C  0.88093735  0.92914214  0.63965368     0.21800
C449        C  0.90482349  0.92033828  0.65573313    -0.34400
C450        C  0.89288534  0.88506191  0.66015974     0.15900
O451        O  0.85453561  0.82838119  0.65575961    -0.26400
C452        C  0.88398358  0.83385561  0.67402261     0.05700
C453        C  0.90866088  0.86857836  0.67760345    -0.31300
O454        O  0.88523361  0.96033930  0.64038990    -0.23200
C455        C  0.85448955  0.95599376  0.62969374    -0.03100
C456        C  0.83003611  0.92163831  0.62101560    -0.17600
H457        H  0.80970438  0.84928987  0.62370758     0.20400
H458        H  0.93029838  0.93973605  0.66673727     0.18800
H459        H  0.93476858  0.87995733  0.69021049     0.18700
H460        H  0.80249257  0.91059324  0.61599531     0.14600
C461        C  0.84440189  0.73661808  0.95933071     0.30000
C462        C  0.83372708  0.73698360  0.91574728    -0.36300
C463        C  0.85445021  0.73511143  0.88203635     0.16000
C464        C  0.88408445  0.73372672  0.89061284     0.21800
C465        C  0.89431864  0.73250283  0.93435017    -0.34400
C466        C  0.87319770  0.73377677  0.96817126     0.15900
O467        O  0.82967591  0.73975523  0.99559032    -0.26400
C468        C  0.84887718  0.73839693  0.02826730     0.05700
C469        C  0.87622156  0.73438052  0.01333858    -0.31300
O470        O  0.90153048  0.73594454  0.85404478    -0.23200
C471        C  0.88236642  0.73794725  0.82168529    -0.03100
C472        C  0.85260517  0.73722524  0.83710979    -0.17600
H473        H  0.81135102  0.73947642  0.90862833     0.20400
H474        H  0.91760329  0.73165345  0.94146859     0.18800
H475        H  0.89591711  0.73318741  0.03277804     0.18700
H476        H  0.83391251  0.74057152  0.81823667     0.14600
C477        C  0.88615789  0.73120296  0.45928908     0.30000
C478        C  0.89513848  0.72777739  0.41568248    -0.36300
C479        C  0.87514098  0.73070164  0.38214518     0.16000
C480        C  0.84843895  0.73704489  0.39095416     0.21800
C481        C  0.83872345  0.73936148  0.43471718    -0.34400
C482        C  0.85850431  0.73602325  0.46834297     0.15900
O483        O  0.90314778  0.73208208  0.49524171    -0.26400
C484        C  0.88588026  0.73692710  0.52788965     0.05700
C485        C  0.85755301  0.73917161  0.51333994    -0.31300
O486        O  0.83591106  0.74289253  0.35450897    -0.23200
C487        C  0.85435446  0.73955838  0.32198200    -0.03100
C488        C  0.87891640  0.73161873  0.33715148    -0.17600
H489        H  0.91704601  0.72444590  0.40836307     0.20400
H490        H  0.81815262  0.74478795  0.44195072     0.18800
H491        H  0.84001878  0.74409060  0.53277728     0.18700
H492        H  0.89839405  0.72952097  0.31804618     0.14600
C493        C  0.06996953  0.14533796  0.12099689     0.30000
C494        C  0.10387386  0.15699355  0.13584579    -0.36300
C495        C  0.11297603  0.13135296  0.14208890     0.16000
C496        C  0.09013059  0.09674716  0.13451462     0.21800
C497        C  0.05702341  0.08540082  0.11802406    -0.34400
C498        C  0.04808376  0.11088457  0.11139788     0.15900
O499        O  0.05347594  0.16300818  0.12195188    -0.26400
C500        C  0.02086190  0.13956141  0.11240815     0.05700
C501        C  0.01645609  0.10702229  0.10435898    -0.31300
O502        O  0.10255444  0.07672235  0.14611341    -0.23200
C503        C  0.13404229  0.09866866  0.16068602    -0.03100
C504        C  0.14223945  0.13310778  0.15859997    -0.17600
H505        H  0.12106690  0.18371489  0.14485868     0.20400
H506        H  0.03863617  0.05815560  0.11330713     0.18800
H507        H  0.99222778  0.08278580  0.10163440     0.18700
H508        H  0.16594853  0.15587245  0.16861206     0.14600
C509        C  0.06096764  0.89688147  0.12265201     0.30000
C510        C  0.03973393  0.86259883  0.13760235    -0.36300
C511        C  0.00483246  0.85239031  0.14578238     0.16000
C512        C  0.99193896  0.87447669  0.13972290     0.21800
C513        C  0.01262578  0.90794821  0.12288776    -0.34400
C514        C  0.04727312  0.91806141  0.11455279     0.15900
O515        O  0.09520321  0.91426547  0.12254049    -0.26400
C516        C  0.10329227  0.94677367  0.11395873     0.05700
C517        C  0.07438939  0.95024450  0.10737542    -0.31300
O518        O  0.95958178  0.86097673  0.15303866    -0.23200
C519        C  0.95130147  0.82959784  0.16731390    -0.03100
C520        C  0.97821314  0.82250473  0.16314822    -0.17600
H521        H  0.05017261  0.84597089  0.14548636     0.20400
H522        H  0.00292074  0.92570524  0.11938066     0.18800
H523        H  0.07349926  0.97400816  0.10556192     0.18700
H524        H  0.97821491  0.79902313  0.17217175     0.14600
C525        C  0.09008236  0.97343128  0.64084936     0.30000
C526        C  0.05593477  0.95091746  0.62829354    -0.36300
C527        C  0.04777714  0.91707661  0.61874779     0.16000
C528        C  0.07143138  0.90581732  0.62180193     0.21800
C529        C  0.10614723  0.92887447  0.63251533    -0.34400
C530        C  0.11435629  0.96289953  0.64192600     0.15900
O531        O  0.10248208  0.00544454  0.65429189    -0.26400
C532        C  0.13528695  0.01580407  0.66360364     0.05700
C533        C  0.14429674  0.99058072  0.65621152    -0.31300
O534        O  0.05635502  0.87170936  0.62163355    -0.23200
C535        C  0.02278571  0.86120352  0.61802258    -0.03100
C536        C  0.01625909  0.88846603  0.61480747    -0.17600
H537        H  0.03647932  0.95865035  0.62875128     0.20400
H538        H  0.12480180  0.92032289  0.63646683     0.18800
H539        H  0.16914991  0.99235266  0.66111953     0.18700
H540        H  0.99139595  0.88717904  0.61732098     0.14600
C541        C  0.22652233  0.11082113  0.96716117     0.30000
C542        C  0.21747330  0.12789261  0.93528920    -0.36300
C543        C  0.22181787  0.12163167  0.89069073     0.16000
C544        C  0.23493313  0.10070683  0.87818330     0.21800
C545        C  0.24426868  0.08392794  0.91000964    -0.34400
C546        C  0.23910759  0.08947412  0.95451231     0.15900
O547        O  0.22155222  0.11028912  0.01057012    -0.26400
C548        C  0.23068566  0.08796551  0.02561856     0.05700
C549        C  0.24180201  0.07428582  0.99228905    -0.31300
O550        O  0.23454727  0.09654003  0.83475802    -0.23200
C551        C  0.22065480  0.11473910  0.81925466    -0.03100
C552        C  0.21237882  0.13100831  0.85253861    -0.17600
H553        H  0.20622968  0.14354999  0.94454741     0.20400
H554        H  0.25325993  0.06637697  0.90070052     0.18800
H555        H  0.24945726  0.05490265  0.99539908     0.18700
H556        H  0.19995027  0.14638738  0.84916975     0.14600
C557        C  0.22174185  0.08118695  0.38683487     0.30000
C558        C  0.21983911  0.06827640  0.43006028    -0.36300
C559        C  0.22845132  0.09219638  0.46449861     0.16000
C560        C  0.23780339  0.12627123  0.45665612     0.21800
C561        C  0.24062494  0.13936780  0.41347316    -0.34400
C562        C  0.23238808  0.11558883  0.37912870     0.15900
O563        O  0.21247637  0.06294523  0.35009746    -0.26400
C564        C  0.21779179  0.08607823  0.31847291     0.05700
C565        C  0.23041895  0.11933899  0.33450059    -0.31300
O566        O  0.24078823  0.14315307  0.49348112    -0.23200
C567        C  0.23394746  0.11993284  0.52549892    -0.03100
C568        C  0.22645198  0.08775777  0.50960914    -0.17600
H569        H  0.21102078  0.04126085  0.43645819     0.20400
H570        H  0.24740352  0.16589948  0.40722595     0.18800
H571        H  0.23579137  0.14244992  0.31622024     0.18700
H572        H  0.21805873  0.06406698  0.52828469     0.14600
C573        C  0.99913509  0.10075885  0.63871022     0.30000
C574        C  0.01923668  0.08731938  0.62237884    -0.36300
C575        C  0.05355361  0.11146402  0.61165503     0.16000
C576        C  0.06762821  0.14661591  0.61741028     0.21800
C577        C  0.04683150  0.16029919  0.63167052    -0.34400
C578        C  0.01210296  0.13594263  0.64199304     0.15900
O579        O  0.96725918  0.08235933  0.65384175    -0.26400
C580        C  0.95916542  0.10584559  0.66642196     0.05700
C581        C  0.98581147  0.13975652  0.65931991    -0.31300
O582        O  0.10189367  0.16324480  0.61608041    -0.23200
C583        C  0.10952799  0.13836274  0.60892165    -0.03100
C584        C  0.08027663  0.10594212  0.60433285    -0.17600
H585        H  0.00941386  0.05973155  0.62097881     0.20400
H586        H  0.05753740  0.18766063  0.63753664     0.18800
H587        H  0.98589364  0.16351457  0.66647403     0.18700
H588        H  0.07906229  0.08110724  0.60420451     0.14600
C589        C  0.14858797  0.82388337  0.75714299     0.30000
C590        C  0.12616258  0.80614305  0.72165370    -0.36300
C591        C  0.09041216  0.79242605  0.72985871     0.16000
C592        C  0.07788629  0.79657123  0.76992061     0.21800
C593        C  0.10018672  0.81420858  0.80517615    -0.34400
C594        C  0.13568271  0.82751492  0.79717632     0.15900
O595        O  0.18220200  0.83483889  0.75888124    -0.26400
C596        C  0.19102440  0.84555346  0.80065355     0.05700
C597        C  0.16293510  0.84188267  0.82560761    -0.31300
O598        O  0.04411765  0.78416268  0.76968132    -0.23200
C599        C  0.03421433  0.77102709  0.72922643    -0.03100
C600        C  0.06207205  0.77531629  0.70296932    -0.17600
H601        H  0.13583090  0.80252689  0.69028059     0.20400
H602        H  0.09044744  0.81703430  0.83694533     0.18800
H603        H  0.16178014  0.84495030  0.86111346     0.18700
H604        H  0.06199738  0.76998778  0.66793526     0.14600
C605        C  0.15954463  0.89459594  0.27238783     0.30000
C606        C  0.13770096  0.86904560  0.30334242    -0.36300
C607        C  0.13242690  0.83558174  0.29679955     0.16000
C608        C  0.14734975  0.82774156  0.26193070     0.21800
C609        C  0.16981679  0.85347917  0.23151524    -0.34400
C610        C  0.17546777  0.88707211  0.23838127     0.15900
O611        O  0.16578214  0.92677546  0.27025506    -0.26400
C612        C  0.18665473  0.94053562  0.23496381     0.05700
C613        C  0.19385767  0.91700837  0.21410301    -0.31300
O614        O  0.14066926  0.79538787  0.26368114    -0.23200
C615        C  0.12127340  0.78200477  0.30027793    -0.03100
C616        C  0.11555211  0.80614751  0.32228210    -0.17600
H617        H  0.12557394  0.87485158  0.33059985     0.20400
H618        H  0.18225788  0.84774096  0.20457428     0.18800
H619        H  0.20776962  0.92045691  0.18318634     0.18700
H620        H  0.10373733  0.80346372  0.35465756     0.14600
C621        C  0.17481479  0.75864272  0.56078923     0.30000
C622        C  0.16279284  0.74674982  0.60413948    -0.36300
C623        C  0.18451358  0.76690575  0.63846787     0.16000
C624        C  0.21588437  0.79655177  0.63040302     0.21800
C625        C  0.22713693  0.80922107  0.58724462    -0.34400
C626        C  0.20540298  0.78920736  0.55300581     0.15900
O627        O  0.16152803  0.74127651  0.52404500    -0.26400
C628        C  0.18347291  0.76134467  0.49238970     0.05700
C629        C  0.21101575  0.79174212  0.50832844    -0.31300
O630        O  0.23411076  0.80899637  0.66664010    -0.23200
C631        C  0.21406251  0.78741597  0.69848268    -0.03100
C632        C  0.18255755  0.76096645  0.68319351    -0.17600
H633        H  0.13934391  0.72240843  0.61054319     0.20400
H634        H  0.25208870  0.83190601  0.58073400     0.18800
H635        H  0.23363674  0.81092567  0.49024863     0.18700
H636        H  0.16228991  0.73952364  0.70184181     0.14600
C637        C  0.17472814  0.74706138  0.13088681     0.30000
C638        C  0.16325667  0.73494586  0.08796052    -0.36300
C639        C  0.18416697  0.75604707  0.05310480     0.16000
C640        C  0.21466510  0.78664707  0.06003828     0.21800
C641        C  0.22564908  0.79928107  0.10307609    -0.34400
C642        C  0.20437821  0.77838953  0.13802949     0.15900
O643        O  0.16025375  0.73034149  0.16805262    -0.26400
C644        C  0.18047957  0.75136764  0.19957055     0.05700
C645        C  0.20821322  0.78190890  0.18301428    -0.31300
O646        O  0.23208410  0.80018019  0.02280911    -0.23200
C647        C  0.21202317  0.77838384  0.99169079    -0.03100
C648        C  0.18173189  0.75061680  0.00852249    -0.17600
H649        H  0.14024450  0.71026577  0.08219375     0.20400
H650        H  0.24963629  0.82305320  0.10891404     0.18800
H651        H  0.22881640  0.80279091  0.20131090     0.18700
H652        H  0.16222917  0.72838097  0.99086665     0.14600
C653        C  0.18309275  0.52371810  0.31088883     0.30000
C654        C  0.15690162  0.53164266  0.30133552    -0.36300
C655        C  0.16744364  0.56712015  0.29912983     0.16000
C656        C  0.20144321  0.59260176  0.30533506     0.21800
C657        C  0.22735691  0.58474698  0.31456831    -0.34400
C658        C  0.21676995  0.54968932  0.31763417     0.15900
O659        O  0.17929892  0.49258518  0.31668813    -0.26400
C660        C  0.21090223  0.49921180  0.32807875     0.05700
C661        C  0.23505231  0.53422717  0.32919899    -0.31300
O662        O  0.20532652  0.62361818  0.30747995    -0.23200
C663        C  0.17358659  0.61856943  0.30258269    -0.03100
C664        C  0.14874834  0.58384291  0.29674805    -0.17600
H665        H  0.13009209  0.51168029  0.29782551     0.20400
H666        H  0.25369203  0.60469338  0.32132332     0.18800
H667        H  0.26228567  0.54649505  0.33719877     0.18700
H668        H  0.12086853  0.57235047  0.29616774     0.14600
C669        C  0.08290081  0.26184404  0.22780128     0.30000
C670        C  0.11790873  0.28258867  0.21476455    -0.36300
C671        C  0.14278573  0.28977208  0.24790979     0.16000
C672        C  0.13372226  0.27787607  0.29099541     0.21800
C673        C  0.09889187  0.25662051  0.30371459    -0.34400
C674        C  0.07415362  0.24927343  0.27065323     0.15900
O675        O  0.05542995  0.25041831  0.20195526    -0.26400
C676        C  0.02867651  0.23038624  0.22870630     0.05700
C677        C  0.03903001  0.22872563  0.27175196    -0.31300
O678        O  0.16036757  0.29187109  0.31813090    -0.23200
C679        C  0.18737002  0.31260708  0.29228687    -0.03100
C680        C  0.17789160  0.31170076  0.24792567    -0.17600
H681        H  0.12523538  0.29279223  0.18129516     0.20400
H682        H  0.09151119  0.24722548  0.33748925     0.18800
H683        H  0.02318005  0.21240598  0.29894877     0.18700
H684        H  0.19351667  0.32864888  0.22106056     0.14600
C685        C  0.13914394  0.29081377  0.75136548     0.30000
C686        C  0.15636245  0.28502072  0.71587328    -0.36300
C687        C  0.16967653  0.26289772  0.72473412     0.16000
C688        C  0.16533268  0.24674605  0.76530218     0.21800
C689        C  0.14810245  0.25246039  0.80069130    -0.34400
C690        C  0.13552255  0.27515717  0.79215198     0.15900
O691        O  0.12924047  0.31422802  0.75228232    -0.26400
C692        C  0.11926053  0.31390036  0.79427670     0.05700
C693        C  0.12240034  0.28969957  0.82035649    -0.31300
O694        O  0.17784698  0.22546427  0.76563748    -0.23200
C695        C  0.19151648  0.22860891  0.72514871    -0.03100
C696        C  0.18711666  0.25165602  0.69825038    -0.17600
H697        H  0.16023076  0.29788363  0.68406394     0.20400
H698        H  0.14539864  0.24062885  0.83301204     0.18800
H699        H  0.11987696  0.28665599  0.85611443     0.18700
H700        H  0.19290986  0.25679037  0.66314855     0.14600
C701        C  0.18611038  0.40778259  0.04583770     0.30000
C702        C  0.17535437  0.40880170  0.08942434    -0.36300
C703        C  0.19391947  0.40390291  0.12327331     0.16000
C704        C  0.22156580  0.39898728  0.11467990     0.21800
C705        C  0.23185402  0.39721258  0.07106364    -0.34400
C706        C  0.21291456  0.40156384  0.03719821     0.15900
O707        O  0.17378080  0.41385709  0.00944153    -0.26400
C708        C  0.19241829  0.41084415  0.97696197     0.05700
C709        C  0.21709897  0.40302543  0.99215423    -0.31300
O710        O  0.23713534  0.39803922  0.15119224    -0.23200
C711        C  0.21890030  0.40178791  0.18361530    -0.03100
C712        C  0.19143087  0.40519038  0.16833802    -0.17600
H713        H  0.15459553  0.41398850  0.09643790     0.20400
H714        H  0.25366814  0.39365674  0.06407344     0.18800
H715        H  0.23641273  0.40065980  0.97303419     0.18700
H716        H  0.17360045  0.40988225  0.18744863     0.14600
C717        C  0.20143418  0.39979598  0.62498356     0.30000
C718        C  0.22464386  0.39951354  0.59346632    -0.36300
C719        C  0.21699127  0.40161519  0.54871305     0.16000
C720        C  0.18814655  0.40316593  0.53578078     0.21800
C721        C  0.16509891  0.40358369  0.56720101    -0.34400
C722        C  0.17308927  0.40214254  0.61180663     0.15900
O723        O  0.20440991  0.40000313  0.66871480    -0.26400
C724        C  0.17781411  0.40296433  0.68343004     0.05700
C725        C  0.15756007  0.40437955  0.64946800    -0.31300
O726        O  0.18686460  0.40669547  0.49241660    -0.23200
C727        C  0.21544965  0.40779412  0.47732379    -0.03100
C728        C  0.23522979  0.40483383  0.51082025    -0.17600
H729        H  0.24762826  0.39886686  0.60315480     0.20400
H730        H  0.14310160  0.40605490  0.55758346     0.18800
H731        H  0.13499656  0.40736866  0.65220981     0.18700
H732        H  0.26009115  0.40623984  0.50775602     0.14600
C733        C  0.17558235  0.62990643  0.81585203     0.30000
C734        C  0.14927955  0.59654050  0.80398247    -0.36300
C735        C  0.16040084  0.57353299  0.79043828     0.16000
C736        C  0.19503189  0.58327064  0.78790506     0.21800
C737        C  0.22109348  0.61639487  0.79954530    -0.34400
C738        C  0.20997603  0.63876523  0.81434172     0.15900
O739        O  0.17144444  0.65537587  0.83088241    -0.26400
C740        C  0.20357914  0.68012699  0.84026265     0.05700
C741        C  0.22846533  0.67114216  0.83075605    -0.31300
O742        O  0.19987031  0.55701528  0.78164130    -0.23200
C743        C  0.16816465  0.52969496  0.78044431    -0.03100
C744        C  0.14234081  0.53839729  0.78491100    -0.17600
H745        H  0.12211466  0.58856832  0.80730054     0.20400
H746        H  0.24811764  0.62345878  0.79992434     0.18800
H747        H  0.25630924  0.68677595  0.83399045     0.18700
H748        H  0.11490787  0.52108844  0.79054655     0.14600
C749        C  0.44426766  0.77932487  0.80672524     0.30000
C750        C  0.43551994  0.80366990  0.79106212    -0.36300
C751        C  0.39989016  0.79203077  0.78828923     0.16000
C752        C  0.37495644  0.75852899  0.79922094     0.21800
C753        C  0.38365882  0.73426660  0.81426387    -0.34400
C754        C  0.41895604  0.74616993  0.81831728     0.15900
O755        O  0.47574115  0.78485221  0.81447355    -0.26400
C756        C  0.47008071  0.75505394  0.83219839     0.05700
C757        C  0.43530341  0.73014976  0.83537806    -0.31300
O758        O  0.34377049  0.75434021  0.80123651    -0.23200
C759        C  0.34828769  0.78541843  0.79186045    -0.03100
C760        C  0.38270151  0.80996454  0.78265020    -0.17600
H761        H  0.45500329  0.83023754  0.78405199     0.20400
H762        H  0.36418032  0.70859402  0.82508666     0.18800
H763        H  0.42382735  0.70384056  0.84771852     0.18700
H764        H  0.39390016  0.83765427  0.77886588     0.14600
C765        C  0.69713332  0.83146441  0.79137580     0.30000
C766        C  0.72256797  0.86486684  0.80435581    -0.36300
C767        C  0.73155462  0.89161892  0.77307777     0.16000
C768        C  0.71628612  0.88606814  0.73197589     0.21800
C769        C  0.69142485  0.85249188  0.71859825    -0.34400
C770        C  0.68295020  0.82558959  0.74958801     0.15900
O771        O  0.68162746  0.80372858  0.81737091    -0.26400
C772        C  0.65781402  0.77914971  0.79167723     0.05700
C773        C  0.65801720  0.79138811  0.74882917    -0.31300
O774        O  0.72878812  0.91484018  0.70788366    -0.23200
C775        C  0.75258535  0.93923777  0.73377259    -0.03100
C776        C  0.75547196  0.92607614  0.77462693    -0.17600
H777        H  0.73393278  0.86981961  0.83707009     0.20400
H778        H  0.67917112  0.84771560  0.68646122     0.18800
H779        H  0.63919897  0.77842428  0.72298357     0.18700
H780        H  0.77376444  0.93967574  0.80080922     0.14600
C781        C  0.32839626  0.54465797  0.80309470     0.30000
C782        C  0.35049041  0.57953214  0.79278694    -0.36300
C783        C  0.38486129  0.58911065  0.78345435     0.16000
C784        C  0.39708128  0.56619913  0.78490528     0.21800
C785        C  0.37455364  0.53084694  0.79381052    -0.34400
C786        C  0.33985069  0.52111297  0.80262525     0.15900
O787        O  0.29578635  0.53077060  0.81537117    -0.26400
C788        C  0.28587682  0.49772194  0.82218660     0.05700
C789        C  0.31202654  0.48997814  0.81446405    -0.31300
O790        O  0.43129553  0.58215149  0.78383288    -0.23200
C791        C  0.44081167  0.61553079  0.78118677    -0.03100
C792        C  0.41286304  0.62111667  0.77974912    -0.17600
H793        H  0.34187946  0.59823412  0.79419440     0.20400
H794        H  0.38376359  0.51265501  0.79624044     0.18800
H795        H  0.31080735  0.46526902  0.81789369     0.18700
H796        H  0.41329559  0.64547433  0.78269974     0.14600
C797        C  0.44641137  0.62728016  0.30231099     0.30000
C798        C  0.44026043  0.59389807  0.29288890    -0.36300
C799        C  0.40667907  0.57005914  0.27870466     0.16000
C800        C  0.38137174  0.57894521  0.27337394     0.21800
C801        C  0.38767964  0.61227206  0.28211647    -0.34400
C802        C  0.42064822  0.63554396  0.29761814     0.15900
O803        O  0.47514927  0.65319084  0.31833841    -0.26400
C804        C  0.46701020  0.67770725  0.32504283     0.05700
C805        C  0.43350100  0.66814819  0.31286536    -0.31300
O806        O  0.35044419  0.55191351  0.26888724    -0.23200
C807        C  0.35550767  0.52512422  0.27158902    -0.03100
C808        C  0.39020228  0.53480723  0.27657311    -0.17600
H809        H  0.45951450  0.58644787  0.29902578     0.20400
H810        H  0.36735413  0.61874425  0.28055401     0.18800
H811        H  0.42084496  0.68342882  0.31397439     0.18700
H812        H  0.40065936  0.51839904  0.28567208     0.14600
C813        C  0.71885131  0.79987214  0.26871925     0.30000
C814        C  0.71290671  0.81865638  0.30143545    -0.36300
C815        C  0.68870038  0.82891532  0.29111415     0.16000
C816        C  0.67158654  0.82146535  0.25119488     0.21800
C817        C  0.67742952  0.80246128  0.21841145    -0.34400
C818        C  0.70132692  0.79170114  0.22905417     0.15900
O819        O  0.74189840  0.78962120  0.27059218    -0.26400
C820        C  0.73867974  0.77375739  0.23208396     0.05700
C821        C  0.71359586  0.77410685  0.20496260    -0.31300
O822        O  0.64731430  0.83024332  0.25066971    -0.23200
C823        C  0.64872806  0.84345267  0.29083656    -0.03100
C824        C  0.67430923  0.84339697  0.31712454    -0.17600
H825        H  0.72595318  0.82449605  0.33304075     0.20400
H826        H  0.66363175  0.79574334  0.18732171     0.18800
H827        H  0.70778415  0.76574346  0.17086028     0.18700
H828        H  0.67854650  0.84896326  0.35220732     0.14600
C829        C  0.57160460  0.74941739  0.61745871     0.30000
C830        C  0.57492093  0.73994605  0.57412296    -0.36300
C831        C  0.56899522  0.75755963  0.53977006     0.16000
C832        C  0.56004029  0.78249641  0.54765300     0.21800
C833        C  0.55775144  0.79271344  0.59100895    -0.34400
C834        C  0.56405265  0.77534572  0.62539299     0.15900
O835        O  0.57291917  0.73412064  0.65424842    -0.26400
C836        C  0.56681826  0.75084827  0.68625563     0.05700
C837        C  0.56146496  0.77706259  0.67042861    -0.31300
O838        O  0.55205737  0.79297852  0.51094609    -0.23200
C839        C  0.55650331  0.77497424  0.47907098    -0.03100
C840        C  0.56737558  0.75273986  0.49495787    -0.17600
H841        H  0.58033215  0.71931500  0.56769990     0.20400
H842        H  0.55021774  0.81183367  0.59749479     0.18800
H843        H  0.55453584  0.79336475  0.68913044     0.18700
H844        H  0.57124273  0.73418320  0.47655533     0.14600
C845        C  0.57023259  0.77988393  0.03807852     0.30000
C846        C  0.56921965  0.80250284  0.06926065    -0.36300
C847        C  0.56778546  0.79286186  0.11389926     0.16000
C848        C  0.56830908  0.76352144  0.12731990     0.21800
C849        C  0.56951779  0.74094409  0.09608352    -0.34400
C850        C  0.57003809  0.75012746  0.05129612     0.15900
O851        O  0.56771761  0.78189837  0.99467954    -0.26400
C852        C  0.56554030  0.75290798  0.97992013     0.05700
C853        C  0.56693577  0.73219766  0.01361218    -0.31300
O854        O  0.56511063  0.75881994  0.17085067    -0.23200
C855        C  0.56192248  0.78522539  0.18513244    -0.03100
C856        C  0.56343985  0.80716944  0.15119922    -0.17600
H857        H  0.56782744  0.82508412  0.05936952     0.20400
H858        H  0.56843066  0.71709647  0.10592387     0.18800
H859        H  0.56385349  0.70665381  0.01089994     0.18700
H860        H  0.56107708  0.83006356  0.15370126     0.14600
C861        C  0.37866635  0.76639706  0.29535760     0.30000
C862        C  0.34579672  0.74178796  0.31084429    -0.36300
C863        C  0.32383947  0.75429951  0.32230451     0.16000
C864        C  0.33276576  0.78848294  0.31701592     0.21800
C865        C  0.36588712  0.81333424  0.30122616    -0.34400
C866        C  0.38857776  0.80095104  0.29119001     0.15900
O867        O  0.40467540  0.76086047  0.29112640    -0.26400
C868        C  0.43205292  0.79207047  0.28467625     0.05700
C869        C  0.42362352  0.81819527  0.28349462    -0.31300
O870        O  0.30755948  0.79401256  0.32971234    -0.23200
C871        C  0.28296175  0.76310058  0.34446970    -0.03100
C872        C  0.29177750  0.73757644  0.34081748    -0.17600
H873        H  0.33867381  0.71506520  0.31641392     0.20400
H874        H  0.37393758  0.84052871  0.29913029     0.18800
H875        H  0.44114727  0.84587362  0.28386391     0.18700
H876        H  0.27614208  0.71030705  0.34885854     0.14600
C877        C  0.81266580  0.62780658  0.09184160     0.30000
C878        C  0.83407792  0.62409269  0.06033476    -0.36300
C879        C  0.84143062  0.59735941  0.06842380     0.16000
C880        C  0.82786132  0.57530343  0.10448875     0.21800
C881        C  0.80676573  0.57922142  0.13618325    -0.34400
C882        C  0.80002903  0.60637545  0.12858415     0.15900
O883        O  0.80561187  0.65321481  0.09317372    -0.26400
C884        C  0.78839641  0.64840175  0.13140729     0.05700
C885        C  0.78429187  0.61953077  0.15482368    -0.31300
O886        O  0.83611666  0.55074890  0.10421407    -0.23200
C887        C  0.85598915  0.55738281  0.06804070    -0.03100
C888        C  0.86034442  0.58633706  0.04456947    -0.17600
H889        H  0.84494754  0.64142157  0.03203636     0.20400
H890        H  0.79669784  0.56251776  0.16515485     0.18800
H891        H  0.77445737  0.61159467  0.18834969     0.18700
H892        H  0.87308165  0.59604391  0.01273560     0.14600
C893        C  0.00976293  0.49250421  0.92437440     0.30000
C894        C  0.01533129  0.47581344  0.88819071    -0.36300
C895        C  0.03869185  0.46368051  0.89518570     0.16000
C896        C  0.05599021  0.46851441  0.93464619     0.21800
C897        C  0.05034998  0.48502540  0.97068207    -0.34400
C898        C  0.02662111  0.49654065  0.96400291     0.15900
O899        O  0.98615223  0.50214921  0.92706430    -0.26400
C900        C  0.98772623  0.51241450  0.96905337     0.05700
C901        C  0.01269210  0.50954786  0.99331593    -0.31300
O902        O  0.07827453  0.45724451  0.93331356    -0.23200
C903        C  0.07473255  0.44394521  0.89287029    -0.03100
C904        C  0.05034981  0.44723353  0.86763306    -0.17600
H905        H  0.00167868  0.47171521  0.85721798     0.20400
H906        H  0.06321144  0.48819552  0.00209434     0.18800
H907        H  0.01709862  0.51276173  0.02872238     0.18700
H908        H  0.04441041  0.44122529  0.83288754     0.14600
C909        C  0.81084203  0.15426390  0.58933674     0.30000
C910        C  0.83115081  0.17910682  0.55667255    -0.36300
C911        C  0.84119674  0.21372733  0.56615293     0.16000
C912        C  0.83110538  0.22300220  0.60459742     0.21800
C913        C  0.81089806  0.19826088  0.63716926    -0.34400
C914        C  0.80144113  0.16383975  0.62808629     0.15900
O915        O  0.80287026  0.12147661  0.59019583    -0.26400
C916        C  0.78835241  0.10973484  0.63012775     0.05700
C917        C  0.78656823  0.13513574  0.65482662    -0.31300
O918        O  0.84149714  0.25632564  0.60567664    -0.23200
C919        C  0.85932305  0.26909218  0.56791594    -0.03100
C920        C  0.86011516  0.24367256  0.54202052    -0.17600
H921        H  0.83955461  0.17207451  0.52668221     0.20400
H922        H  0.80367354  0.20548476  0.66796704     0.18800
H923        H  0.77984376  0.13399184  0.68965309     0.18700
H924        H  0.87032248  0.24631246  0.50863034     0.14600
C925        C  0.01007682  0.49209037  0.43197769     0.30000
C926        C  0.01517029  0.51569440  0.39744885    -0.36300
C927        C  0.03724778  0.55101575  0.40674376     0.16000
C928        C  0.05371628  0.56217764  0.44690682     0.21800
C929        C  0.04841175  0.53867979  0.48143773    -0.34400
C930        C  0.02607259  0.50352158  0.47234846     0.15900
O931        O  0.98772906  0.45841065  0.43226749    -0.26400
C932        C  0.98927665  0.44798303  0.47342376     0.05700
C933        C  0.01298103  0.47515920  0.49957156    -0.31300
O934        O  0.07540018  0.59589028  0.44738019    -0.23200
C935        C  0.07231634  0.60697245  0.40738658    -0.03100
C936        C  0.04872735  0.58006860  0.38072843    -0.17600
H937        H  0.00228404  0.50716049  0.36586037     0.20400
H938        H  0.06072629  0.54725611  0.51335136     0.18800
H939        H  0.01685635  0.47480535  0.53498961     0.18700
H940        H  0.04353295  0.58126492  0.34589390     0.14600
C941        C  0.90929046  0.44402530  0.72073225     0.30000
C942        C  0.91613163  0.46970480  0.75199027    -0.36300
C943        C  0.91174304  0.45918936  0.79658597     0.16000
C944        C  0.90214245  0.42591358  0.80992321     0.21800
C945        C  0.89555614  0.40021787  0.77859886    -0.34400
C946        C  0.89916092  0.41056958  0.73383026     0.15900
O947        O  0.90824702  0.44737837  0.67731407    -0.26400
C948        C  0.89697462  0.41559330  0.66238207     0.05700
C949        C  0.89105715  0.39166952  0.69601207    -0.31300
O950        O  0.89725780  0.42138298  0.85334568    -0.23200
C951        C  0.90340450  0.45208194  0.86755218    -0.03100
C952        C  0.91254253  0.47649303  0.83379621    -0.17600
H953        H  0.92260334  0.49560039  0.74217992     0.20400
H954        H  0.88653977  0.37368697  0.78833949     0.18800
H955        H  0.88056380  0.36405421  0.69312370     0.18700
H956        H  0.91770461  0.50281835  0.83626649     0.14600
C957        C  0.89592525  0.45368685  0.23005905     0.30000
C958        C  0.89258461  0.46316363  0.27351891    -0.36300
C959        C  0.89959092  0.44628650  0.30795102     0.16000
C960        C  0.90869407  0.42147465  0.29988853     0.21800
C961        C  0.91294547  0.41273269  0.25658466    -0.34400
C962        C  0.90641795  0.42989215  0.22228119     0.15900
O963        O  0.88786079  0.46390208  0.19309813    -0.26400
C964        C  0.89385134  0.44686103  0.16128420     0.05700
C965        C  0.90575071  0.42556269  0.17747834    -0.31300
O966        O  0.91051505  0.40632960  0.33649515    -0.23200
C967        C  0.90324106  0.42204091  0.36865068    -0.03100
C968        C  0.89650407  0.44742789  0.35305798    -0.17600
H969        H  0.88391109  0.48140622  0.28001803     0.20400
H970        H  0.91958918  0.39296536  0.25011755     0.18800
H971        H  0.91100912  0.40789282  0.15916690     0.18700
H972        H  0.88829157  0.46267019  0.37188160     0.14600
C973        C  0.80236703  0.61145892  0.62929957     0.30000
C974        C  0.76772170  0.58835551  0.64136421    -0.36300
C975        C  0.74280471  0.58097586  0.60844481     0.16000
C976        C  0.75117869  0.59538632  0.56641861     0.21800
C977        C  0.78600960  0.61817362  0.55412062    -0.34400
C978        C  0.81108066  0.62517720  0.58696449     0.15900
O979        O  0.82908942  0.62497841  0.65642913    -0.26400
C980        C  0.85584692  0.64715910  0.63118159     0.05700
C981        C  0.84605486  0.64777647  0.58730664    -0.31300
O982        O  0.72376601  0.58333466  0.54026471    -0.23200
C983        C  0.69739357  0.56090661  0.56592363    -0.03100
C984        C  0.70797608  0.55851730  0.60864704    -0.17600
H985        H  0.76059733  0.57727694  0.67445270     0.20400
H986        H  0.79309391  0.62969424  0.52124314     0.18800
H987        H  0.86141462  0.66569971  0.56108950     0.18700
H988        H  0.69263072  0.54059827  0.63490903     0.14600
C989        C  0.40889417  0.46550973  0.43015878     0.30000
C990        C  0.43123030  0.48264119  0.46570953    -0.36300
C991        C  0.46655183  0.49401186  0.45865109     0.16000
C992        C  0.47925673  0.48925232  0.41911975     0.21800
C993        C  0.45680937  0.47197421  0.38345960    -0.34400
C994        C  0.42125934  0.46000737  0.39081553     0.15900
O995        O  0.37529320  0.45432950  0.42910614    -0.26400
C996        C  0.36536147  0.44043408  0.38896044     0.05700
C997        C  0.39303681  0.44325128  0.36366065    -0.31300
O998        O  0.51261352  0.49901853  0.42134993    -0.23200
C999        C  0.52156894  0.51017392  0.46294578    -0.03100
C1000       C  0.49371872  0.50766807  0.48741721    -0.17600
H1001       H  0.42162621  0.48642863  0.49702680     0.20400
H1002       H  0.46628434  0.46738754  0.35255037     0.18800
H1003       H  0.39295104  0.43682052  0.32903767     0.18700
H1004       H  0.49269378  0.51166808  0.52269555     0.14600
C1005       C  0.71740512  0.43711806  0.46541039     0.30000
C1006       C  0.72496919  0.41114160  0.47575697    -0.36300
C1007       C  0.75904443  0.42225022  0.48778832     0.16000
C1008       C  0.78469565  0.45658236  0.48800200     0.21800
C1009       C  0.77717021  0.48286121  0.47716040    -0.34400
C1010       C  0.74243817  0.47171146  0.46629791     0.15900
O1011       O  0.68600535  0.43217258  0.46151248    -0.26400
C1012       C  0.69031081  0.46378843  0.45984068     0.05700
C1013       C  0.72506595  0.48964911  0.46200290    -0.31300
O1014       O  0.81477848  0.46061858  0.50113617    -0.23200
C1015       C  0.80755305  0.42842329  0.51046184    -0.03100
C1016       C  0.77335062  0.40370836  0.50283040    -0.17600
H1017       H  0.70503296  0.38414828  0.47727734     0.20400
H1018       H  0.79649803  0.50998914  0.47933747     0.18800
H1019       H  0.73539596  0.51711454  0.46647463     0.18700
H1020       H  0.76104080  0.37590550  0.50676824     0.14600
C1021       C  0.37286592  0.21972867  0.07331760     0.30000
C1022       C  0.35029130  0.18544947  0.06036158    -0.36300
C1023       C  0.34216343  0.15971656  0.09285530     0.16000
C1024       C  0.35446452  0.16725783  0.13561432     0.21800
C1025       C  0.37776714  0.20145027  0.14826906    -0.34400
C1026       C  0.38642507  0.22710981  0.11550406     0.15900
O1027       O  0.38546593  0.24751416  0.04748238    -0.26400
C1028       C  0.40753568  0.27317531  0.07330402     0.05700
C1029       C  0.40923997  0.26183493  0.11596148    -0.31300
O1030       O  0.33911590  0.14003450  0.16239171    -0.23200
C1031       C  0.31737444  0.11430501  0.13628831    -0.03100
C1032       C  0.31890127  0.12510788  0.09238117    -0.17600
H1033       H  0.33958564  0.17927189  0.02729169     0.20400
H1034       H  0.38784113  0.20770990  0.18164514     0.18800
H1035       H  0.42685894  0.27658456  0.14226119     0.18700
H1036       H  0.30160234  0.11082129  0.06563336     0.14600
C1037       C  0.67028512  0.45025625  0.97238188     0.30000
C1038       C  0.70394651  0.47672532  0.96116495    -0.36300
C1039       C  0.72822844  0.46614011  0.95250322     0.16000
C1040       C  0.71944717  0.43176135  0.95373613     0.21800
C1041       C  0.68580041  0.40542887  0.96380077    -0.34400
C1042       C  0.66209149  0.41609470  0.97395053     0.15900
O1043       O  0.64432150  0.45427565  0.98592327    -0.26400
C1044       C  0.61979470  0.42234654  0.99722976     0.05700
C1045       C  0.62940423  0.39763022  0.99038518    -0.31300
O1046       O  0.74660736  0.42779950  0.95380536    -0.23200
C1047       C  0.77339354  0.45981670  0.95277900    -0.03100
C1048       C  0.76362374  0.48491172  0.95090205    -0.17600
H1049       H  0.71129905  0.50375513  0.96254016     0.20400
H1050       H  0.67939153  0.37874715  0.96756459     0.18800
H1051       H  0.61439354  0.37002908  0.99663145     0.18700
H1052       H  0.77989431  0.51251190  0.95548841     0.14600
C1053       C  0.47936077  0.50280380  0.96786662     0.30000
C1054       C  0.49654546  0.53843430  0.97667585    -0.36300
C1055       C  0.50861044  0.56071266  0.93958934     0.16000
C1056       C  0.50393338  0.54887608  0.89658729     0.21800
C1057       C  0.48614669  0.51310097  0.88770067    -0.34400
C1058       C  0.47403972  0.49070745  0.92493891     0.15900
O1059       O  0.47042012  0.47791419  0.99767432    -0.26400
C1060       C  0.45866972  0.44910341  0.97397390     0.05700
C1061       C  0.45981101  0.45555093  0.92835039    -0.31300
O1062       O  0.51621038  0.57444664  0.86697425    -0.23200
C1063       C  0.52932200  0.60312690  0.89133011    -0.03100
C1064       C  0.52495862  0.59591677  0.93673327    -0.17600
H1065       H  0.50111771  0.54815920  0.01028388     0.20400
H1066       H  0.48249546  0.50339558  0.85412347     0.18800
H1067       H  0.45560272  0.43779376  0.90159134     0.18700
H1068       H  0.53060094  0.61393583  0.96361784     0.14600
C1069       C  0.54929222  0.45651132  0.29582409     0.30000
C1070       C  0.55773936  0.47006493  0.25251844    -0.36300
C1071       C  0.54053270  0.44667600  0.21829285     0.16000
C1072       C  0.51678679  0.41224754  0.22622358     0.21800
C1073       C  0.50738542  0.39895017  0.26966931    -0.34400
C1074       C  0.52449120  0.42244095  0.30397878     0.15900
O1075       O  0.56486790  0.47295602  0.33221408    -0.26400
C1076       C  0.54947550  0.44941125  0.36425955     0.05700
C1077       C  0.52379689  0.41752716  0.34888804    -0.31300
O1078       O  0.50697917  0.39416613  0.18937998    -0.23200
C1079       C  0.52431059  0.41738374  0.15746275    -0.03100
C1080       C  0.54525729  0.45061270  0.17341867    -0.17600
H1081       H  0.57757816  0.49655767  0.24593239     0.20400
H1082       H  0.48930927  0.37188400  0.27618498     0.18800
H1083       H  0.50855543  0.39381584  0.36764468     0.18700
H1084       H  0.56309767  0.47366972  0.15495795     0.14600
C1085       C  0.54051609  0.44365982  0.80616695     0.30000
C1086       C  0.56559627  0.46433780  0.77425455    -0.36300
C1087       C  0.55526328  0.45736339  0.72972884     0.16000
C1088       C  0.52236311  0.43231503  0.71740950     0.21800
C1089       C  0.49733366  0.41181720  0.74926794    -0.34400
C1090       C  0.50787816  0.41822789  0.79359010     0.15900
O1091       O  0.54509568  0.44388221  0.84953668    -0.26400
C1092       C  0.51510662  0.41789979  0.86449060     0.05700
C1093       C  0.49111823  0.40109104  0.83121593    -0.31300
O1094       O  0.51914477  0.42809063  0.67401745    -0.23200
C1095       C  0.55047617  0.45048240  0.65829218    -0.03100
C1096       C  0.57393654  0.46950729  0.69140983    -0.17600
H1097       H  0.59173035  0.48337252  0.78335809     0.20400
H1098       H  0.47195676  0.39115547  0.74005200     0.18800
H1099       H  0.46528032  0.37893923  0.83433212     0.18700
H1100       H  0.60130679  0.48801476  0.68785595     0.14600
C1101       C  0.34269009  0.15375045  0.59195452     0.30000
C1102       C  0.34959840  0.13702105  0.55704926    -0.36300
C1103       C  0.37311466  0.12543107  0.56617302     0.16000
C1104       C  0.38938351  0.13069319  0.60651362     0.21800
C1105       C  0.38206628  0.14688479  0.64158822    -0.34400
C1106       C  0.35817669  0.15797965  0.63267921     0.15900
O1107       O  0.31955301  0.16413088  0.59185172    -0.26400
C1108       C  0.32004533  0.17524845  0.63313379     0.05700
C1109       C  0.34364499  0.17179901  0.65985879    -0.31300
O1110       O  0.41265583  0.12055490  0.60664483    -0.23200
C1111       C  0.41062746  0.10750023  0.56626094    -0.03100
C1112       C  0.38628387  0.10978537  0.53975987    -0.17600
H1113       H  0.33717440  0.13294412  0.52514898     0.20400
H1114       H  0.39416710  0.15057770  0.67366295     0.18800
H1115       H  0.34718278  0.17583788  0.69529615     0.18700
H1116       H  0.38141865  0.10381656  0.50484192     0.14600
C1117       C  0.72226843  0.25602364  0.45452496     0.30000
C1118       C  0.68810475  0.24788403  0.46199921    -0.36300
C1119       C  0.66455140  0.21324352  0.47132731     0.16000
C1120       C  0.67340138  0.18773595  0.47148521     0.21800
C1121       C  0.70768888  0.19577578  0.46283505    -0.34400
C1122       C  0.73175135  0.23094020  0.45487248     0.15900
O1123       O  0.74895408  0.28747506  0.45511774    -0.26400
C1124       C  0.77615361  0.28297753  0.45570820     0.05700
C1125       C  0.76717145  0.24828678  0.45478533    -0.31300
O1126       O  0.64728119  0.15739366  0.48420179    -0.23200
C1127       C  0.62205014  0.16421938  0.49327255    -0.03100
C1128       C  0.63131945  0.19839504  0.48567070    -0.17600
H1129       H  0.68101265  0.26771295  0.46439403     0.20400
H1130       H  0.71550746  0.17649389  0.46547408     0.18800
H1131       H  0.78384853  0.23753231  0.46039008     0.18700
H1132       H  0.61577397  0.21053985  0.49036677     0.14600
C1133       C  0.48041421  0.96016725  0.42031252     0.30000
C1134       C  0.50024998  0.95556553  0.38732702    -0.36300
C1135       C  0.50737511  0.92863278  0.39475554     0.16000
C1136       C  0.49508593  0.90724953  0.43160563     0.21800
C1137       C  0.47571294  0.91215812  0.46482577    -0.34400
C1138       C  0.46912943  0.93943486  0.45778452     0.15900
O1139       O  0.47364345  0.98573268  0.42216375    -0.26400
C1140       C  0.45793141  0.98162198  0.46142637     0.05700
C1141       C  0.45457814  0.95315912  0.48501589    -0.31300
O1142       O  0.50246037  0.88211388  0.43036346    -0.23200
C1143       C  0.52051769  0.88777995  0.39275110    -0.03100
C1144       C  0.52459390  0.91661322  0.36932691    -0.17600
H1145       H  0.50999505  0.97224699  0.35832941     0.20400
H1146       H  0.46663687  0.89598179  0.49431370     0.18800
H1147       H  0.44604106  0.94586929  0.51909288     0.18700
H1148       H  0.53584007  0.92549908  0.33658980     0.14600
C1149       C  0.51229427  0.29708876  0.48737640     0.30000
C1150       C  0.48576455  0.26307993  0.47854362    -0.36300
C1151       C  0.49668656  0.23980221  0.46543046     0.16000
C1152       C  0.53127233  0.24977629  0.46068807     0.21800
C1153       C  0.55751889  0.28355279  0.46908064    -0.34400
C1154       C  0.54668518  0.30628331  0.48329162     0.15900
O1155       O  0.50851204  0.32291933  0.50190353    -0.26400
C1156       C  0.54096457  0.34829718  0.50826455     0.05700
C1157       C  0.56561987  0.33932878  0.49726140    -0.31300
O1158       O  0.53626280  0.22350733  0.45533325    -0.23200
C1159       C  0.50467848  0.19599293  0.45654713    -0.03100
C1160       C  0.47878015  0.20449170  0.46209077    -0.17600
H1161       H  0.45871747  0.25493143  0.48378859     0.20400
H1162       H  0.58461334  0.29096663  0.46757783     0.18800
H1163       H  0.59355118  0.35526785  0.49831479     0.18700
H1164       H  0.45161310  0.18715460  0.46944659     0.14600
C1165       C  0.79765576  0.16346568  0.13447808     0.30000
C1166       C  0.76251199  0.14998831  0.14579684    -0.36300
C1167       C  0.73864626  0.13466205  0.11116634     0.16000
C1168       C  0.74861526  0.13227815  0.06849635     0.21800
C1169       C  0.78379028  0.14641258  0.05702167    -0.34400
C1170       C  0.80770276  0.16245567  0.09139975     0.15900
O1171       O  0.82377808  0.17492554  0.16245910    -0.26400
C1172       C  0.85128364  0.18238939  0.13694119     0.05700
C1173       C  0.84270793  0.17573785  0.09220391    -0.31300
O1174       O  0.72218047  0.11799303  0.04097605    -0.23200
C1175       C  0.69476249  0.11113845  0.06616679    -0.03100
C1176       C  0.70359553  0.12125439  0.11011209    -0.17600
H1177       H  0.75429174  0.15085577  0.17943305     0.20400
H1178       H  0.79196389  0.14489826  0.02358662     0.18800
H1179       H  0.85890810  0.17581843  0.06525175     0.18700
H1180       H  0.68695502  0.12102791  0.13658874     0.14600
C1181       C  0.52398387  0.25009507  0.94261972     0.30000
C1182       C  0.55070679  0.24239488  0.94321440    -0.36300
C1183       C  0.54131644  0.20875681  0.95612224     0.16000
C1184       C  0.50763575  0.18368839  0.96609732     0.21800
C1185       C  0.48053743  0.19111400  0.96411458    -0.34400
C1186       C  0.49012515  0.22531694  0.95243528     0.15900
O1187       O  0.52872830  0.28154899  0.94190119    -0.26400
C1188       C  0.49765690  0.27727426  0.95090188     0.05700
C1189       C  0.47235482  0.24271214  0.95703913    -0.31300
O1190       O  0.50553958  0.15499561  0.98174710    -0.23200
C1191       C  0.53839881  0.16242544  0.98257140    -0.03100
C1192       C  0.56164503  0.19531198  0.96679193    -0.17600
H1193       H  0.57751241  0.26222217  0.93830954     0.20400
H1194       H  0.45443594  0.17245450  0.97462070     0.18800
H1195       H  0.44637741  0.23261762  0.97019088     0.18700
H1196       H  0.58960648  0.20780507  0.96478723     0.14600
C1197       C  0.41865094  0.92329263  0.90083610     0.30000
C1198       C  0.45352158  0.94613024  0.88892854    -0.36300
C1199       C  0.47808563  0.95504126  0.92294521     0.16000
C1200       C  0.46887285  0.94322227  0.96601715     0.21800
C1201       C  0.43417674  0.91979651  0.97768772    -0.34400
C1202       C  0.40975475  0.91033668  0.94352783     0.15900
O1203       O  0.39161492  0.91036428  0.87400467    -0.26400
C1204       C  0.36496296  0.88869626  0.89982417     0.05700
C1205       C  0.37494812  0.88756895  0.94331686    -0.31300
O1206       O  0.49509692  0.95874943  0.99375407    -0.23200
C1207       C  0.52200008  0.98017340  0.96811379    -0.03100
C1208       C  0.51284954  0.97830060  0.92350261    -0.17600
H1209       H  0.46097261  0.95646956  0.85556987     0.20400
H1210       H  0.42662413  0.91015807  0.01131755     0.18800
H1211       H  0.35912110  0.87084582  0.97023088     0.18700
H1212       H  0.52839019  0.99499825  0.89646031     0.14600
C1213       C  0.51039693  0.06794738  0.28787623     0.30000
C1214       C  0.49701080  0.06475415  0.24501215    -0.36300
C1215       C  0.51998604  0.07031141  0.20986751     0.16000
C1216       C  0.55396112  0.07898476  0.21655728     0.21800
C1217       C  0.56712607  0.08132464  0.25947399    -0.34400
C1218       C  0.54394465  0.07520484  0.29466947     0.15900
O1219       O  0.49414119  0.06623359  0.32522800    -0.26400
C1220       C  0.51725035  0.07175616  0.35647392     0.05700
C1221       C  0.54867771  0.07717217  0.33957384    -0.31300
O1222       O  0.57166115  0.08592794  0.17907535    -0.23200
C1223       C  0.54858215  0.08100782  0.14795814    -0.03100
C1224       C  0.51587462  0.07099102  0.16508698    -0.17600
H1225       H  0.47084383  0.05931794  0.23948632     0.20400
H1226       H  0.59377744  0.08836997  0.26500701     0.18800
H1227       H  0.57203309  0.08354275  0.35753483     0.18700
H1228       H  0.49306212  0.06670507  0.14734840     0.14600
C1229       C  0.52678964  0.06134180  0.79705975     0.30000
C1230       C  0.50598142  0.06476634  0.76512632    -0.36300
C1231       C  0.51529136  0.06426185  0.72069367     0.16000
C1232       C  0.54264033  0.05981223  0.70819857     0.21800
C1233       C  0.56320703  0.05593745  0.74016290    -0.34400
C1234       C  0.55444470  0.05735800  0.78464318     0.15900
O1235       O  0.52511219  0.06490946  0.84036736    -0.26400
C1236       C  0.55237924  0.06373524  0.85567000     0.05700
C1237       C  0.57137779  0.05885743  0.82260549    -0.31300
O1238       O  0.54851469  0.06328010  0.66487248    -0.23200
C1239       C  0.52477365  0.07033869  0.64967871    -0.03100
C1240       C  0.50342257  0.07116799  0.68289197    -0.17600
H1241       H  0.48526369  0.06954178  0.77426369     0.20400
H1242       H  0.58568791  0.05403643  0.73104331     0.18800
H1243       H  0.59511645  0.05807460  0.82597042     0.18700
H1244       H  0.48328488  0.07780739  0.67980120     0.14600
C1245       C  0.71982974  0.24930022  0.95296073     0.30000
C1246       C  0.72731122  0.28328524  0.95985605    -0.36300
C1247       C  0.76002342  0.30593733  0.97681830     0.16000
C1248       C  0.78452927  0.29642219  0.98493023     0.21800
C1249       C  0.77712945  0.26226044  0.97758615    -0.34400
C1250       C  0.74375985  0.23910235  0.96167444     0.15900
O1251       O  0.68879117  0.22307461  0.94542692    -0.26400
C1252       C  0.69231140  0.19534304  0.94919207     0.05700
C1253       C  0.72620748  0.20373798  0.95866870    -0.31300
O1254       O  0.81323422  0.32203107  0.00182213    -0.23200
C1255       C  0.80626684  0.34765683  0.00561299    -0.03100
C1256       C  0.77362845  0.33905904  0.99054661    -0.17600
H1257       H  0.70800731  0.29092004  0.95525496     0.20400
H1258       H  0.79535557  0.25388980  0.98600342     0.18800
H1259       H  0.73525268  0.18632903  0.96868020     0.18700
H1260       H  0.76192435  0.35521662  0.98915889     0.14600
loop_ 
_geom_bond_atom_site_label_1 
_geom_bond_atom_site_label_2 
_geom_bond_distance 
_geom_bond_site_symmetry_2 
_ccdc_geom_bond_type 
Fe1          O17   2.040       .  S
Fe1           O7   2.088       .  S
Fe1          O14   2.074       .  S
Fe1           O6   2.028   1_554  S
Fe1          O12   1.918       .  S
Fe2           O5   2.036       .  S
Fe2           O9   2.099       .  S
Fe2          O13   2.045   1_554  S
Fe2          O18   2.114   1_554  S
Fe2          O12   1.942       .  S
Fe3          O21   2.135       .  S
Fe3           O8   2.039       .  S
Fe3          O15   2.076   1_556  S
Fe3           O4   2.126       .  S
Fe3          O12   1.967   1_556  S
O4           C11   1.275       .  A
O5           C19   1.255   1_554  A
O6           C11   1.258       .  A
O7           C10   1.276       .  A
O8           C20   1.273       .  A
O9           C22   1.276       .  A
C10          O15   1.279       .  A
C10        C1175   1.474       .  S
C11        C1252   1.467       .  S
O13          C16   1.263       .  A
O14          C16   1.271   1_554  A
C16        C1191   1.461       .  S
O17          C22   1.265       .  A
O18          C20   1.282       .  A
C19          O21   1.277       .  A
C19        C1207   1.483   1_545  S
C20        C1236   1.465       .  S
C22        C1223   1.466       .  S
Fe23         O39   2.079       .  S
Fe23         O29   2.027       .  S
Fe23         O36   2.040       .  S
Fe23         O28   2.091       .  S
Fe23         O34   1.919       .  S
Fe24         O27   2.110       .  S
Fe24         O31   2.042       .  S
Fe24         O35   2.099       .  S
Fe24         O40   2.035       .  S
Fe24         O34   1.948       .  S
Fe25         O43   2.042       .  S
Fe25         O30   2.127       .  S
Fe25         O37   2.113       .  S
Fe25         O26   2.081       .  S
Fe25         O34   1.966       .  S
O26          C33   1.280       .  A
O27          C41   1.280       .  A
O28          C33   1.275       .  A
O29          C32   1.261       .  A
O30          C42   1.276       .  A
O31          C44   1.262       .  A
C32          O37   1.274       .  A
C32        C1159   1.462       .  S
C33        C1111   1.484       .  S
O35          C38   1.274       .  A
O36          C38   1.266       .  A
C38        C1239   1.468       .  S
O39          C44   1.272       .  A
O40          C42   1.256       .  A
C41          O43   1.271       .  A
C41        C1220   1.465       .  S
C42        C1140   1.474   1_545  S
C44        C1127   1.461       .  S
Fe45         O61   2.045       .  S
Fe45         O51   2.073       .  S
Fe45         O58   2.072       .  S
Fe45         O50   2.034   1_554  S
Fe45         O56   1.925       .  S
Fe46         O49   2.034       .  S
Fe46         O53   2.094       .  S
Fe46         O57   2.045   1_554  S
Fe46         O62   2.108   1_554  S
Fe46         O56   1.944       .  S
Fe47         O65   2.127       .  S
Fe47         O52   2.039       .  S
Fe47         O59   2.079   1_556  S
Fe47         O48   2.107       .  S
Fe47         O56   1.967   1_556  S
O48          C55   1.273       .  A
O49          C63   1.255   1_554  A
O50          C55   1.262       .  A
O51          C54   1.273       .  A
O52          C64   1.271       .  A
O53          C66   1.275       .  A
C54          O59   1.279       .  A
C54        C1028   1.472       .  S
C55        C1188   1.461       .  S
O57          C60   1.263   1_556  A
O58          C60   1.271       .  A
C60        C1044   1.462   1_554  S
O61          C66   1.265       .  A
O62          C64   1.280       .  A
C63          O65   1.275       .  A
C63        C1060   1.480       .  S
C64        C1092   1.465       .  S
C66        C1079   1.468       .  S
Fe67         O83   2.076       .  S
Fe67         O73   2.028       .  S
Fe67         O80   2.041       .  S
Fe67         O72   2.078       .  S
Fe67         O78   1.922       .  S
Fe68         O71   2.109       .  S
Fe68         O75   2.047       .  S
Fe68         O79   2.099       .  S
Fe68         O84   2.035       .  S
Fe68         O78   1.948       .  S
Fe69         O87   2.045       .  S
Fe69         O74   2.139       .  S
Fe69         O81   2.121       .  S
Fe69         O70   2.090       .  S
Fe69         O78   1.970       .  S
O70          C77   1.282       .  A
O71          C85   1.281       .  A
O72          C77   1.274       .  A
O73          C76   1.260       .  A
O74          C86   1.278       .  A
O75          C88   1.263       .  A
C76          O81   1.275       .  A
C76        C1012   1.466       .  S
C77         C983   1.482       .  S
O79          C82   1.275       .  A
O80          C82   1.265       .  A
C82        C1095   1.468       .  S
O83          C88   1.271       .  A
O84          C86   1.257       .  A
C85          O87   1.272       .  A
C85        C1076   1.463       .  S
C86         C999   1.487       .  S
C88        C1156   1.464       .  S
Fe89        O105   2.078       .  S
Fe89         O95   2.031       .  S
Fe89        O102   2.044       .  S
Fe89         O94   2.075       .  S
Fe89        O100   1.918       .  S
Fe90         O93   2.114       .  S
Fe90         O97   2.049       .  S
Fe90        O101   2.095       .  S
Fe90        O106   2.032       .  S
Fe90        O100   1.943       .  S
Fe91        O109   2.038       .  S
Fe91         O96   2.131       .  S
Fe91        O103   2.105       .  S
Fe91         O92   2.085       .  S
Fe91        O100   1.971       .  S
O92          C99   1.281       .  A
O93         C107   1.281       .  A
O94          C99   1.272       .  A
O95          C98   1.263       .  A
O96         C108   1.275       .  A
O97         C110   1.264       .  A
C98         O103   1.274       .  A
C98        C1124   1.459       .  S
C99         C919   1.478       .  S
O101        C104   1.274       .  A
O102        C104   1.266       .  A
C104        C948   1.468       .  S
O105        C110   1.272       .  A
O106        C108   1.254       .  A
C107        O109   1.270       .  A
C107        C967   1.465       .  S
C108        C932   1.479       .  S
C110       C1015   1.466       .  S
Fe111       O127   2.051       .  S
Fe111       O117   2.079       .  S
Fe111       O124   2.078       .  S
Fe111       O116   2.029   1_554  S
Fe111       O122   1.925       .  S
Fe112       O115   2.037       .  S
Fe112       O119   2.095       .  S
Fe112       O123   2.050       .  S
Fe112       O128   2.104   1_554  S
Fe112       O122   1.948       .  S
Fe113       O131   2.128       .  S
Fe113       O118   2.040       .  S
Fe113       O125   2.089   1_556  S
Fe113       O114   2.105       .  S
Fe113       O122   1.973   1_556  S
O114        C121   1.273       .  A
O115        C129   1.258   1_554  A
O116        C121   1.261       .  A
O117        C120   1.273       .  A
O118        C130   1.271       .  A
O119        C132   1.275       .  A
C120        O125   1.281       .  A
C120        C887   1.483       .  S
C121       C1047   1.460       .  S
O123        C126   1.264       .  A
O124        C126   1.271       .  A
C126       C1255   1.466       .  S
O127        C132   1.266       .  A
O128        C130   1.279       .  A
C129        O131   1.276       .  A
C129        C900   1.482       .  S
C130        C951   1.463       .  S
C132        C964   1.470       .  S
Fe133       O149   2.043       .  S
Fe133       O139   2.084       .  S
Fe133       O146   2.078       .  S
Fe133       O138   2.024       .  S
Fe133       O144   1.915       .  S
Fe134       O137   2.032       .  S
Fe134       O141   2.098       .  S
Fe134       O145   2.040       .  S
Fe134       O150   2.115       .  S
Fe134       O144   1.938       .  S
Fe135       O153   2.133       .  S
Fe135       O140   2.036       .  S
Fe135       O147   2.077       .  S
Fe135       O136   2.117       .  S
Fe135       O144   1.965       .  S
O136        C143   1.275       .  A
O137        C151   1.256       .  A
O138        C143   1.259       .  A
O139        C142   1.275       .  A
O140        C152   1.270       .  A
O141        C154   1.275       .  A
C142        O147   1.279       .  A
C142       C1143   1.477       .  S
C143        C868   1.462       .  S
O145        C148   1.263       .  A
O146        C148   1.272       .  A
C148        C804   1.459       .  S
O149        C154   1.265       .  A
O150        C152   1.281       .  A
C151        O153   1.277       .  A
C151        C823   1.477       .  S
C152        C855   1.466       .  S
C154        C839   1.468       .  S
Fe155       O171   2.076       .  S
Fe155       O161   2.021       .  S
Fe155       O168   2.038       .  S
Fe155       O160   2.071       .  S
Fe155       O166   1.918       .  S
Fe156       O159   2.106       .  S
Fe156       O163   2.043       .  S
Fe156       O167   2.104       .  S
Fe156       O172   2.036       .  S
Fe156       O166   1.938       .  S
Fe157       O175   2.040       .  S
Fe157       O162   2.137       .  S
Fe157       O169   2.117       .  S
Fe157       O158   2.088       .  S
Fe157       O166   1.958       .  S
O158        C165   1.279       .  A
O159        C173   1.279       .  A
O160        C165   1.270       .  A
O161        C164   1.263       .  A
O162        C174   1.282       .  A
O163        C176   1.262       .  A
C164        O169   1.278       .  A
C164        C791   1.463       .  S
C165       C1063   1.477       .  S
O167        C170   1.276       .  A
O168        C170   1.265       .  A
C170        C852   1.465       .  S
O171        C176   1.270       .  A
O172        C174   1.258       .  A
C173        O175   1.268       .  A
C173        C836   1.465       .  S
C174        C772   1.479       .  S
C176        C756   1.461       .  S
Fe177       O193   2.077       .  S
Fe177       O183   2.023       .  S
Fe177       O190   2.041       .  S
Fe177       O182   2.085       .  S
Fe177       O188   1.916       .  S
Fe178       O181   2.118       .  S
Fe178       O185   2.043       .  S
Fe178       O189   2.101       .  S
Fe178       O194   2.035       .  S
Fe178       O188   1.941       .  S
Fe179       O197   2.037       .  S
Fe179       O184   2.137       .  S
Fe179       O191   2.118       .  S
Fe179       O180   2.082       .  S
Fe179       O188   1.965       .  S
O180        C187   1.280       .  A
O181        C195   1.281       .  A
O182        C187   1.274       .  A
O183        C186   1.260       .  A
O184        C196   1.279       .  A
O185        C198   1.264       .  A
C186        O191   1.275       .  A
C186        C743   1.462       .  S
C187        C903   1.480       .  S
O189        C192   1.276       .  A
O190        C192   1.266       .  A
C192        C708   1.466       .  S
O193        C198   1.270       .  A
O194        C196   1.257       .  A
C195        O197   1.270       .  A
C195        C724   1.471       .  S
C196        C692   1.481       .  S
C198        C788   1.459       .  S
Fe199       O215   2.045       .  S
Fe199       O205   2.076       .  S
Fe199       O212   2.077       .  S
Fe199       O204   2.027       .  S
Fe199       O210   1.918       .  S
Fe200       O203   2.035       .  S
Fe200       O207   2.102       .  S
Fe200       O211   2.055       .  S
Fe200       O216   2.109       .  S
Fe200       O210   1.943       .  S
Fe201       O219   2.131       .  S
Fe201       O206   2.039       .  S
Fe201       O213   2.094       .  S
Fe201       O202   2.105       .  S
Fe201       O210   1.971       .  S
O202        C209   1.274       .  A
O203        C217   1.257       .  A
O204        C209   1.263       .  A
O205        C208   1.271       .  A
O206        C218   1.269       .  A
O207        C220   1.276       .  A
C208        O213   1.281       .  A
C208        C996   1.484       .  S
C209        C807   1.456       .  S
O211        C214   1.264       .  A
O212        C214   1.271       .  A
C214        C660   1.469       .  S
O215        C220   1.266       .  A
O216        C218   1.280       .  A
C217        O219   1.278       .  A
C217        C679   1.479       .  S
C218        C711   1.465       .  S
C220        C727   1.468       .  S
Fe221       O237   2.041       .  S
Fe221       O227   2.076       .  S
Fe221       O234   2.083       .  S
Fe221       O226   2.026       .  S
Fe221       O232   1.917       .  S
Fe222       O225   2.032       .  S
Fe222       O229   2.094       .  S
Fe222       O233   2.038       .  S
Fe222       O238   2.107       .  S
Fe222       O232   1.942       .  S
Fe223       O241   2.143       .  S
Fe223       O228   2.037       .  S
Fe223       O235   2.084       .  S
Fe223       O224   2.122       .  S
Fe223       O232   1.960       .  S
O224        C231   1.278       .  A
O225        C239   1.256       .  A
O226        C231   1.263       .  A
O227        C230   1.272       .  A
O228        C240   1.268       .  A
O229        C242   1.274       .  A
C230        O235   1.279       .  A
C230        C935   1.479       .  S
C231        C663   1.465       .  S
O233        C236   1.263       .  A
O234        C236   1.273       .  A
C236        C871   1.460       .  S
O237        C242   1.264       .  A
O238        C240   1.279       .  A
C239        O241   1.281       .  A
C239        C615   1.480       .  S
C240        C644   1.464       .  S
C242        C628   1.461       .  S
Fe243       O259   2.084       .  S
Fe243       O249   2.023       .  S
Fe243       O256   2.045       .  S
Fe243       O248   2.081       .  S
Fe243       O254   1.919       .  S
Fe244       O247   2.101       .  S
Fe244       O251   2.043       .  S
Fe244       O255   2.094       .  S
Fe244       O260   2.034       .  S
Fe244       O254   1.942       .  S
Fe245       O263   2.041       .  S
Fe245       O250   2.136       .  S
Fe245       O257   2.115       .  S
Fe245       O246   2.086       .  S
Fe245       O254   1.964       .  S
O246        C253   1.279       .  A
O247        C261   1.277       .  A
O248        C253   1.273       .  A
O249        C252   1.261       .  A
O250        C262   1.279       .  A
O251        C264   1.264       .  A
C252        O257   1.277       .  A
C252        C759   1.462       .  S
C253       C1204   1.482       .  S
O255        C258   1.273       .  A
O256        C258   1.264       .  A
C258        C647   1.464       .  S
O259        C264   1.273       .  A
O260        C262   1.259       .  A
C261        O263   1.269       .  A
C261        C631   1.461       .  S
C262        C596   1.482       .  S
C264        C740   1.462       .  S
Fe265       O281   2.047       .  S
Fe265       O271   2.079       .  S
Fe265       O278   2.077       .  S
Fe265       O270   2.027       .  S
Fe265       O276   1.923       .  S
Fe266       O269   2.029       .  S
Fe266       O273   2.096       .  S
Fe266       O277   2.039       .  S
Fe266       O282   2.118       .  S
Fe266       O276   1.945       .  S
Fe267       O285   2.144       .  S
Fe267       O272   2.034       .  S
Fe267       O279   2.092       .  S
Fe267       O268   2.114       .  S
Fe267       O276   1.973       .  S
O268        C275   1.273       .  A
O269        C283   1.253       .  A
O270        C275   1.261       .  A
O271        C274   1.274       .  A
O272        C284   1.270       .  A
O273        C286   1.275       .  A
C274        O279   1.284       .  A
C274        C695   1.481       .  S
C275        C583   1.466       .  S
O277        C280   1.262       .  A
O278        C280   1.270       .  A
C280        C532   1.462       .  S
O281        C286   1.267       .  A
O282        C284   1.283       .  A
C283        O285   1.278       .  A
C283       C1108   1.488       .  S
C284        C567   1.464       .  S
C286        C551   1.471       .  S
Fe287       O303   2.080       .  S
Fe287       O293   2.030   1_545  S
Fe287       O300   2.049       .  S
Fe287       O292   2.086   1_545  S
Fe287       O298   1.923       .  S
Fe288       O291   2.110       .  S
Fe288       O295   2.042       .  S
Fe288       O299   2.087       .  S
Fe288       O304   2.035       .  S
Fe288       O298   1.946       .  S
Fe289       O307   2.046       .  S
Fe289       O294   2.122       .  S
Fe289       O301   2.107   1_545  S
Fe289       O290   2.084   1_545  S
Fe289       O298   1.972       .  S
O290        C297   1.281       .  A
O291        C305   1.281       .  A
O292        C297   1.276       .  A
O293        C296   1.261       .  A
O294        C306   1.274       .  A
O295        C308   1.263       .  A
C296        O301   1.272       .  A
C296        C516   1.464       .  S
C297        C612   1.482       .  S
O299        C302   1.273       .  A
O300        C302   1.266       .  A
C302        C564   1.466       .  S
O303        C308   1.271       .  A
O304        C306   1.254       .  A
C305        O307   1.273       .  A
C305        C548   1.467       .  S
C306       C1031   1.474       .  S
C308        C503   1.461       .  S
Fe309       O325   2.047       .  S
Fe309       O315   2.067       .  S
Fe309       O322   2.081       .  S
Fe309       O314   2.023       .  S
Fe309       O320   1.922       .  S
Fe310       O313   2.035       .  S
Fe310       O317   2.099       .  S
Fe310       O321   2.040       .  S
Fe310       O326   2.099       .  S
Fe310       O320   1.943       .  S
Fe311       O329   2.140       .  S
Fe311       O316   2.042       .  S
Fe311       O323   2.094       .  S
Fe311       O312   2.112       .  S
Fe311       O320   1.966       .  S
O312        C319   1.276       .  A
O313        C327   1.259       .  A
O314        C319   1.264       .  A
O315        C318   1.270   1_655  A
O316        C328   1.268       .  A
O317        C330   1.275       .  A
C318        O323   1.280   1_455  A
C318        C599   1.481       .  S
C319        C535   1.463   1_655  S
O321        C324   1.263       .  A
O322        C324   1.272       .  A
C324        C452   1.462       .  S
O325        C330   1.264       .  A
O326        C328   1.276       .  A
C327        O329   1.282       .  A
C327        C980   1.482       .  S
C328        C484   1.464       .  S
C330        C471   1.467       .  S
Fe331       O347   2.083       .  S
Fe331       O337   2.031       .  S
Fe331       O344   2.047       .  S
Fe331       O336   2.086       .  S
Fe331       O342   1.921       .  S
Fe332       O335   2.111       .  S
Fe332       O339   2.038       .  S
Fe332       O343   2.092       .  S
Fe332       O348   2.037       .  S
Fe332       O342   1.945       .  S
Fe333       O351   2.040       .  S
Fe333       O338   2.133       .  S
Fe333       O345   2.119       .  S
Fe333       O334   2.075       .  S
Fe333       O342   1.966       .  S
O334        C341   1.279       .  A
O335        C349   1.281       .  A
O336        C341   1.276       .  A
O337        C340   1.260       .  A
O338        C350   1.277       .  A
O339        C352   1.263       .  A
C340        O345   1.275       .  A
C340        C436   1.466       .  S
C341        C820   1.476       .  S
O343        C346   1.274       .  A
O344        C346   1.265       .  A
C346        C487   1.466       .  S
O347        C352   1.272       .  A
O348        C350   1.256       .  A
C349        O351   1.271       .  A
C349        C468   1.466       .  S
C350        C884   1.479       .  S
C352        C519   1.460       .  S
Fe353       O369   2.044       .  S
Fe353       O359   2.090   1_545  S
Fe353       O366   2.086       .  S
Fe353       O358   2.024       .  S
Fe353       O364   1.918       .  S
Fe354       O357   2.033       .  S
Fe354       O361   2.093       .  S
Fe354       O365   2.041       .  S
Fe354       O370   2.107       .  S
Fe354       O364   1.943       .  S
Fe355       O373   2.134       .  S
Fe355       O360   2.039       .  S
Fe355       O367   2.079   1_545  S
Fe355       O356   2.116   1_545  S
Fe355       O364   1.965       .  S
O356        C363   1.276       .  A
O357        C371   1.256       .  A
O358        C363   1.261   1_545  A
O359        C362   1.276       .  A
O360        C372   1.269       .  A
O361        C374   1.273       .  A
C362        O367   1.278       .  A
C362        C775   1.483       .  S
C363        C455   1.464       .  S
O365        C368   1.264       .  A
O366        C368   1.273       .  A
C368        C580   1.461       .  S
O369        C374   1.265       .  A
O370        C372   1.279       .  A
C371        O373   1.278       .  A
C371        C916   1.477       .  S
C372        C420   1.463       .  S
C374        C407   1.465       .  S
Fe375       O391   2.081       .  S
Fe375       O381   2.027       .  S
Fe375       O388   2.048       .  S
Fe375       O380   2.076       .  S
Fe375       O386   1.919       .  S
Fe376       O379   2.105       .  S
Fe376       O383   2.051       .  S
Fe376       O387   2.091       .  S
Fe376       O392   2.036       .  S
Fe376       O386   1.944       .  S
Fe377       O395   2.039       .  S
Fe377       O382   2.129       .  S
Fe377       O389   2.112       .  S
Fe377       O378   2.081       .  S
Fe377       O386   1.971       .  S
O378        C385   1.278       .  A
O379        C393   1.280       .  A
O380        C385   1.273       .  A
O381        C384   1.263       .  A
O382        C394   1.277       .  A
O383        C396   1.264       .  A
C384        O389   1.274       .  A
C384        C500   1.463   1_655  S
C385        C676   1.476   1_655  S
O387        C390   1.274       .  A
O388        C390   1.266       .  A
C390        C423   1.465       .  S
O391        C396   1.272       .  A
O392        C394   1.255       .  A
C393        O395   1.270       .  A
C393        C404   1.462       .  S
C394       C1172   1.477       .  S
C396        C439   1.468       .  S
C397        C402   1.380       .  A
C397        C398   1.403       .  A
C397        O403   1.315       .  A
C398        C399   1.401       .  A
C398        H409   1.081       .  S
C399        C408   1.364       .  A
C399        C400   1.381       .  A
C400        C401   1.403       .  A
C400        O406   1.315       .  A
C401        C402   1.400       .  A
C401        H410   1.081       .  S
C402        C405   1.363   1_556  A
O403        C404   1.330   1_556  A
C404        C405   1.388       .  A
C405        H411   1.082       .  S
O406        C407   1.330       .  A
C407        C408   1.390       .  A
C408        H412   1.082       .  S
C413        C418   1.380       .  A
C413        C414   1.401       .  A
C413        O419   1.314       .  A
C414        C415   1.399       .  A
C414        H425   1.081       .  S
C415        C424   1.361       .  A
C415        C416   1.380       .  A
C416        C417   1.405       .  A
C416        O422   1.317       .  A
C417        C418   1.403       .  A
C417        H426   1.081       .  S
C418        C421   1.365       .  A
O419        C420   1.329       .  A
C420        C421   1.390       .  A
C421        H427   1.082       .  S
O422        C423   1.331       .  A
C423        C424   1.388       .  A
C424        H428   1.082       .  S
C429        C434   1.381       .  A
C429        C430   1.398       .  A
C429        O435   1.312       .  A
C430        C431   1.396       .  A
C430        H441   1.084       .  S
C431        C440   1.356   1_565  A
C431        C432   1.380       .  A
C432        C433   1.409       .  A
C432        O438   1.324       .  A
C433        C434   1.409       .  A
C433        H442   1.083       .  S
C434        C437   1.371       .  A
O435        C436   1.328       .  A
C436        C437   1.395       .  A
C437        H443   1.083       .  S
O438        C439   1.334   1_565  A
C439        C440   1.387       .  A
C440        H444   1.084       .  S
C445        C450   1.380       .  A
C445        C446   1.408       .  A
C445        O451   1.321       .  A
C446        C447   1.407       .  A
C446        H457   1.082       .  S
C447        C456   1.370       .  A
C447        C448   1.381       .  A
C448        C449   1.396       .  A
C448        O454   1.308       .  A
C449        C450   1.393       .  A
C449        H458   1.083       .  S
C450        C453   1.354       .  A
O451        C452   1.333       .  A
C452        C453   1.386       .  A
C453        H459   1.083       .  S
O454        C455   1.327       .  A
C455        C456   1.394       .  A
C456        H460   1.082       .  S
C461        C466   1.380       .  A
C461        C462   1.401       .  A
C461        O467   1.315       .  A
C462        C463   1.400       .  A
C462        H473   1.081       .  S
C463        C472   1.361       .  A
C463        C464   1.380       .  A
C464        C465   1.406       .  A
C464        O470   1.319       .  A
C465        C466   1.404       .  A
C465        H474   1.081       .  S
C466        C469   1.366   1_556  A
O467        C468   1.329   1_556  A
C468        C469   1.391       .  A
C469        H475   1.082       .  S
O470        C471   1.332       .  A
C471        C472   1.389       .  A
C472        H476   1.082       .  S
C477        C482   1.381       .  A
C477        C478   1.402       .  A
C477        O483   1.315       .  A
C478        C479   1.400       .  A
C478        H489   1.081       .  S
C479        C488   1.362       .  A
C479        C480   1.380       .  A
C480        C481   1.405       .  A
C480        O486   1.317       .  A
C481        C482   1.403       .  A
C481        H490   1.082       .  S
C482        C485   1.365       .  A
O483        C484   1.329       .  A
C484        C485   1.390       .  A
C485        H491   1.082       .  S
O486        C487   1.331       .  A
C487        C488   1.389       .  A
C488        H492   1.082       .  S
C493        C498   1.381       .  A
C493        C494   1.407       .  A
C493        O499   1.322       .  A
C494        C495   1.406       .  A
C494        H505   1.084       .  S
C495        C504   1.365       .  A
C495        C496   1.381       .  A
C496        C497   1.395       .  A
C496        O502   1.314       .  A
C497        C498   1.396       .  A
C497        H506   1.085       .  S
C498        C501   1.351       .  A
O499        C500   1.333       .  A
C500        C501   1.389       .  A
C501        H507   1.085   1_455  S
O502        C503   1.326       .  A
C503        C504   1.393       .  A
C504        H508   1.083       .  S
C509        C514   1.381       .  A
C509        C510   1.407       .  A
C509        O515   1.322       .  A
C510        C511   1.406       .  A
C510        H521   1.082       .  S
C511        C520   1.365   1_455  A
C511        C512   1.381   1_455  A
C512        C513   1.396   1_655  A
C512        O518   1.314       .  A
C513        C514   1.397       .  A
C513        H522   1.083       .  S
C514        C517   1.352       .  A
O515        C516   1.333       .  A
C516        C517   1.389       .  A
C517        H523   1.083       .  S
O518        C519   1.326       .  A
C519        C520   1.392       .  A
C520        H524   1.082       .  S
C525        C530   1.381       .  A
C525        C526   1.397       .  A
C525        O531   1.315   1_565  A
C526        C527   1.398       .  A
C526        H537   1.083       .  S
C527        C536   1.352       .  A
C527        C528   1.381       .  A
C528        C529   1.405       .  A
C528        O534   1.322       .  A
C529        C530   1.404       .  A
C529        H538   1.083       .  S
C530        C533   1.362       .  A
O531        C532   1.328       .  A
C532        C533   1.392   1_545  A
C533        H539   1.082       .  S
O534        C535   1.332       .  A
C535        C536   1.390       .  A
C536        H540   1.084   1_455  S
C541        C546   1.381       .  A
C541        C542   1.404       .  A
C541        O547   1.322   1_556  A
C542        C543   1.405       .  A
C542        H553   1.082       .  S
C543        C552   1.360       .  A
C543        C544   1.381       .  A
C544        C545   1.401       .  A
C544        O550   1.320       .  A
C545        C546   1.402       .  A
C545        H554   1.082       .  S
C546        C549   1.358       .  A
O547        C548   1.331       .  A
C548        C549   1.389   1_554  A
C549        H555   1.082       .  S
O550        C551   1.330       .  A
C551        C552   1.393       .  A
C552        H556   1.082       .  S
C557        C562   1.380       .  A
C557        C558   1.405       .  A
C557        O563   1.317       .  A
C558        C559   1.403       .  A
C558        H569   1.081       .  S
C559        C568   1.367       .  A
C559        C560   1.380       .  A
C560        C561   1.402       .  A
C560        O566   1.313       .  A
C561        C562   1.399       .  A
C561        H570   1.081       .  S
C562        C565   1.362       .  A
O563        C564   1.331       .  A
C564        C565   1.389       .  A
C565        H571   1.082       .  S
O566        C567   1.329       .  A
C567        C568   1.391       .  A
C568        H572   1.082       .  S
C573        C578   1.380   1_655  A
C573        C574   1.394   1_655  A
C573        O579   1.312       .  A
C574        C575   1.395       .  A
C574        H585   1.083       .  S
C575        C584   1.350       .  A
C575        C576   1.381       .  A
C576        C577   1.409       .  A
C576        O582   1.323       .  A
C577        C578   1.408       .  A
C577        H586   1.082       .  S
C578        C581   1.368   1_455  A
O579        C580   1.325       .  A
C580        C581   1.394       .  A
C581        H587   1.082       .  S
O582        C583   1.334       .  A
C583        C584   1.389       .  A
C584        H588   1.083       .  S
C589        C594   1.378       .  A
C589        C590   1.413       .  A
C589        O595   1.325       .  A
C590        C591   1.412       .  A
C590        H601   1.082       .  S
C591        C600   1.374       .  A
C591        C592   1.378       .  A
C592        C593   1.405       .  A
C592        O598   1.319       .  A
C593        C594   1.403       .  A
C593        H602   1.082       .  S
C594        C597   1.363       .  A
O595        C596   1.337       .  A
C596        C597   1.394       .  A
C597        H603   1.083       .  S
O598        C599   1.333       .  A
C599        C600   1.398       .  A
C600        H604   1.082       .  S
C605        C610   1.378       .  A
C605        C606   1.409       .  A
C605        O611   1.321       .  A
C606        C607   1.407       .  A
C606        H617   1.082       .  S
C607        C616   1.369       .  A
C607        C608   1.377       .  A
C608        C609   1.410       .  A
C608        O614   1.322       .  A
C609        C610   1.408       .  A
C609        H618   1.082       .  S
C610        C613   1.371       .  A
O611        C612   1.335       .  A
C612        C613   1.395       .  A
C613        H619   1.082       .  S
O614        C615   1.335       .  A
C615        C616   1.396       .  A
C616        H620   1.082       .  S
C621        C626   1.381       .  A
C621        C622   1.404       .  A
C621        O627   1.316       .  A
C622        C623   1.402       .  A
C622        H633   1.081       .  S
C623        C632   1.365       .  A
C623        C624   1.381       .  A
C624        C625   1.400       .  A
C624        O630   1.313       .  A
C625        C626   1.398       .  A
C625        H634   1.081       .  S
C626        C629   1.360       .  A
O627        C628   1.331       .  A
C628        C629   1.388       .  A
C629        H635   1.082       .  S
O630        C631   1.328       .  A
C631        C632   1.390       .  A
C632        H636   1.082       .  S
C637        C642   1.380       .  A
C637        C638   1.401       .  A
C637        O643   1.314       .  A
C638        C639   1.399       .  A
C638        H649   1.081       .  S
C639        C648   1.360       .  A
C639        C640   1.380       .  A
C640        C641   1.405       .  A
C640        O646   1.318       .  A
C641        C642   1.403       .  A
C641        H650   1.081       .  S
C642        C645   1.366       .  A
O643        C644   1.329       .  A
C644        C645   1.391       .  A
C645        H651   1.082       .  S
O646        C647   1.331   1_554  A
C647        C648   1.388   1_556  A
C648        H652   1.082   1_554  S
C653        C658   1.380       .  A
C653        C654   1.411       .  A
C653        O659   1.325       .  A
C654        C655   1.410       .  A
C654        H665   1.082       .  S
C655        C664   1.373       .  A
C655        C656   1.381       .  A
C656        C657   1.395       .  A
C656        O662   1.309       .  A
C657        C658   1.393       .  A
C657        H666   1.082       .  S
C658        C661   1.353       .  A
O659        C660   1.335       .  A
C660        C661   1.386       .  A
C661        H667   1.083       .  S
O662        C663   1.327       .  A
C663        C664   1.395       .  A
C664        H668   1.082       .  S
C669        C674   1.378       .  A
C669        C670   1.411       .  A
C669        O675   1.325       .  A
C670        C671   1.411       .  A
C670        H681   1.083       .  S
C671        C680   1.369       .  A
C671        C672   1.378       .  A
C672        C673   1.405       .  A
C672        O678   1.320       .  A
C673        C674   1.404       .  A
C673        H682   1.082       .  S
C674        C677   1.363       .  A
O675        C676   1.336       .  A
C676        C677   1.392       .  A
C677        H683   1.083       .  S
O678        C679   1.333       .  A
C679        C680   1.398       .  A
C680        H684   1.082       .  S
C685        C690   1.378       .  A
C685        C686   1.411       .  A
C685        O691   1.324       .  A
C686        C687   1.410       .  A
C686        H697   1.082       .  S
C687        C696   1.372       .  A
C687        C688   1.378       .  A
C688        C689   1.407       .  A
C688        O694   1.322       .  A
C689        C690   1.407       .  A
C689        H698   1.082       .  S
C690        C693   1.366       .  A
O691        C692   1.335       .  A
C692        C693   1.396       .  A
C693        H699   1.082       .  S
O694        C695   1.334       .  A
C695        C696   1.397       .  A
C696        H700   1.082       .  S
C701        C706   1.380       .  A
C701        C702   1.403       .  A
C701        O707   1.316       .  A
C702        C703   1.401       .  A
C702        H713   1.081       .  S
C703        C712   1.364       .  A
C703        C704   1.380       .  A
C704        C705   1.404       .  A
C704        O710   1.316       .  A
C705        C706   1.402       .  A
C705        H714   1.081       .  S
C706        C709   1.364   1_554  A
O707        C708   1.330   1_554  A
C708        C709   1.391       .  A
C709        H715   1.082       .  S
O710        C711   1.331       .  A
C711        C712   1.389       .  A
C712        H716   1.082       .  S
C717        C722   1.381       .  A
C717        C718   1.405       .  A
C717        O723   1.324       .  A
C718        C719   1.406       .  A
C718        H729   1.082       .  S
C719        C728   1.362       .  A
C719        C720   1.381       .  A
C720        C721   1.400       .  A
C720        O726   1.319       .  A
C721        C722   1.401       .  A
C721        H730   1.082       .  S
C722        C725   1.355       .  A
O723        C724   1.332       .  A
C724        C725   1.391       .  A
C725        H731   1.083       .  S
O726        C727   1.329       .  A
C727        C728   1.393       .  A
C728        H732   1.082       .  S
C733        C738   1.380       .  A
C733        C734   1.408       .  A
C733        O739   1.322       .  A
C734        C735   1.408       .  A
C734        H745   1.082       .  S
C735        C744   1.370       .  A
C735        C736   1.381       .  A
C736        C737   1.396       .  A
C736        O742   1.309       .  A
C737        C738   1.394       .  A
C737        H746   1.083       .  S
C738        C741   1.354       .  A
O739        C740   1.333       .  A
C740        C741   1.386       .  A
C741        H747   1.083       .  S
O742        C743   1.327       .  A
C743        C744   1.394       .  A
C744        H748   1.083       .  S
C749        C754   1.380       .  A
C749        C750   1.407       .  A
C749        O755   1.321       .  A
C750        C751   1.406       .  A
C750        H761   1.082       .  S
C751        C760   1.369       .  A
C751        C752   1.381       .  A
C752        C753   1.396       .  A
C752        O758   1.309       .  A
C753        C754   1.393       .  A
C753        H762   1.082       .  S
C754        C757   1.354       .  A
O755        C756   1.332       .  A
C756        C757   1.386       .  A
C757        H763   1.082       .  S
O758        C759   1.328       .  A
C759        C760   1.393       .  A
C760        H764   1.082       .  S
C765        C770   1.378       .  A
C765        C766   1.407       .  A
C765        O771   1.323       .  A
C766        C767   1.407       .  A
C766        H777   1.083       .  S
C767        C776   1.366       .  A
C767        C768   1.379       .  A
C768        C769   1.409       .  A
C768        O774   1.325       .  A
C769        C770   1.409       .  A
C769        H778   1.083       .  S
C770        C773   1.367       .  A
O771        C772   1.335       .  A
C772        C773   1.397       .  A
C773        H779   1.082       .  S
O774        C775   1.335       .  A
C775        C776   1.395       .  A
C776        H780   1.083       .  S
C781        C786   1.381       .  A
C781        C782   1.395       .  A
C781        O787   1.313       .  A
C782        C783   1.396       .  A
C782        H793   1.081       .  S
C783        C792   1.350       .  A
C783        C784   1.381       .  A
C784        C785   1.406       .  A
C784        O790   1.322       .  A
C785        C786   1.406       .  A
C785        H794   1.081       .  S
C786        C789   1.364       .  A
O787        C788   1.326       .  A
C788        C789   1.392       .  A
C789        H795   1.082       .  S
O790        C791   1.332       .  A
C791        C792   1.390       .  A
C792        H796   1.083       .  S
C797        C802   1.380       .  A
C797        C798   1.405       .  A
C797        O803   1.320       .  A
C798        C799   1.405       .  A
C798        H809   1.082       .  S
C799        C808   1.366       .  A
C799        C800   1.382       .  A
C800        C801   1.396       .  A
C800        O806   1.309       .  A
C801        C802   1.394       .  A
C801        H810   1.082       .  S
C802        C805   1.354       .  A
O803        C804   1.331       .  A
C804        C805   1.386       .  A
C805        H811   1.083       .  S
O806        C807   1.327       .  A
C807        C808   1.392       .  A
C808        H812   1.083       .  S
C813        C818   1.378       .  A
C813        C814   1.405       .  A
C813        O819   1.320       .  A
C814        C815   1.404       .  A
C814        H825   1.081       .  S
C815        C824   1.364       .  A
C815        C816   1.378       .  A
C816        C817   1.411       .  A
C816        O822   1.324       .  A
C817        C818   1.410       .  A
C817        H826   1.082       .  S
C818        C821   1.370       .  A
O819        C820   1.332       .  A
C820        C821   1.396       .  A
C821        H827   1.082       .  S
O822        C823   1.336       .  A
C823        C824   1.394       .  A
C824        H828   1.082       .  S
C829        C834   1.380       .  A
C829        C830   1.403       .  A
C829        O835   1.315       .  A
C830        C831   1.401       .  A
C830        H841   1.081       .  S
C831        C840   1.364       .  A
C831        C832   1.380       .  A
C832        C833   1.405       .  A
C832        O838   1.317       .  A
C833        C834   1.402       .  A
C833        H842   1.081       .  S
C834        C837   1.366       .  A
O835        C836   1.330       .  A
C836        C837   1.390       .  A
C837        H843   1.082       .  S
O838        C839   1.331       .  A
C839        C840   1.390       .  A
C840        H844   1.082       .  S
C845        C850   1.382       .  A
C845        C846   1.400       .  A
C845        O851   1.318   1_554  A
C846        C847   1.400       .  A
C846        H857   1.082       .  S
C847        C856   1.355       .  A
C847        C848   1.381       .  A
C848        C849   1.403       .  A
C848        O854   1.322       .  A
C849        C850   1.404       .  A
C849        H858   1.082       .  S
C850        C853   1.359       .  A
O851        C852   1.328       .  A
C852        C853   1.392   1_556  A
C853        H859   1.082       .  S
O854        C855   1.330       .  A
C855        C856   1.390       .  A
C856        H860   1.082       .  S
C861        C866   1.381       .  A
C861        C862   1.395       .  A
C861        O867   1.308       .  A
C862        C863   1.392       .  A
C862        H873   1.082       .  S
C863        C872   1.353       .  A
C863        C864   1.380       .  A
C864        C865   1.408       .  A
C864        O870   1.321       .  A
C865        C866   1.408       .  A
C865        H874   1.082       .  S
C866        C869   1.371       .  A
O867        C868   1.327       .  A
C868        C869   1.394       .  A
C869        H875   1.082       .  S
O870        C871   1.333       .  A
C871        C872   1.385       .  A
C872        H876   1.083       .  S
C877        C882   1.378       .  A
C877        C878   1.410       .  A
C877        O883   1.322       .  A
C878        C879   1.409       .  A
C878        H889   1.083       .  S
C879        C888   1.372       .  A
C879        C880   1.378       .  A
C880        C881   1.408       .  A
C880        O886   1.321       .  A
C881        C882   1.406       .  A
C881        H890   1.083       .  S
C882        C885   1.369       .  A
O883        C884   1.335       .  A
C884        C885   1.395       .  A
C885        H891   1.083       .  S
O886        C887   1.335       .  A
C887        C888   1.395       .  A
C888        H892   1.082       .  S
C893        C898   1.378       .  A
C893        C894   1.412       .  A
C893        O899   1.325   1_455  A
C894        C895   1.412       .  A
C894        H905   1.082       .  S
C895        C904   1.372       .  A
C895        C896   1.378       .  A
C896        C897   1.405       .  A
C896        O902   1.321       .  A
C897        C898   1.405       .  A
C897        H906   1.082   1_556  S
C898        C901   1.365       .  A
O899        C900   1.337       .  A
C900        C901   1.394   1_655  A
C901        H907   1.082   1_556  S
O902        C903   1.333       .  A
C903        C904   1.397       .  A
C904        H908   1.082       .  S
C909        C914   1.378       .  A
C909        C910   1.411       .  A
C909        O915   1.323       .  A
C910        C911   1.409       .  A
C910        H921   1.082       .  S
C911        C920   1.371       .  A
C911        C912   1.378       .  A
C912        C913   1.405       .  A
C912        O918   1.319       .  A
C913        C914   1.404       .  A
C913        H922   1.082       .  S
C914        C917   1.365       .  A
O915        C916   1.335       .  A
C916        C917   1.395       .  A
C917        H923   1.083       .  S
O918        C919   1.333       .  A
C919        C920   1.395       .  A
C920        H924   1.082       .  S
C925        C930   1.378       .  A
C925        C926   1.411       .  A
C925        O931   1.324   1_455  A
C926        C927   1.410       .  A
C926        H937   1.082       .  S
C927        C936   1.371       .  A
C927        C928   1.378       .  A
C928        C929   1.406       .  A
C928        O934   1.321       .  A
C929        C930   1.405       .  A
C929        H938   1.082       .  S
C930        C933   1.364       .  A
O931        C932   1.336       .  A
C932        C933   1.395   1_655  A
C933        H939   1.083       .  S
O934        C935   1.333       .  A
C935        C936   1.396       .  A
C936        H940   1.082       .  S
C941        C946   1.381       .  A
C941        C942   1.399       .  A
C941        O947   1.319       .  A
C942        C943   1.400       .  A
C942        H953   1.081       .  S
C943        C952   1.355       .  A
C943        C944   1.381       .  A
C944        C945   1.403       .  A
C944        O950   1.322       .  A
C945        C946   1.405       .  A
C945        H954   1.082       .  S
C946        C949   1.360       .  A
O947        C948   1.328       .  A
C948        C949   1.393       .  A
C949        H955   1.082       .  S
O950        C951   1.330       .  A
C951        C952   1.388       .  A
C952        H956   1.082       .  S
C957        C962   1.380       .  A
C957        C958   1.407       .  A
C957        O963   1.319       .  A
C958        C959   1.405       .  A
C958        H969   1.081       .  S
C959        C968   1.368       .  A
C959        C960   1.380       .  A
C960        C961   1.402       .  A
C960        O966   1.314       .  A
C961        C962   1.399       .  A
C961        H970   1.081       .  S
C962        C965   1.362       .  A
O963        C964   1.333       .  A
C964        C965   1.389       .  A
C965        H971   1.082       .  S
O966        C967   1.329       .  A
C967        C968   1.391       .  A
C968        H972   1.082       .  S
C973        C978   1.378       .  A
C973        C974   1.406       .  A
C973        O979   1.322       .  A
C974        C975   1.406       .  A
C974        H985   1.082       .  S
C975        C984   1.363       .  A
C975        C976   1.378       .  A
C976        C977   1.411       .  A
C976        O982   1.327       .  A
C977        C978   1.412       .  A
C977        H986   1.083       .  S
C978        C981   1.369       .  A
O979        C980   1.334       .  A
C980        C981   1.398       .  A
C981        H987   1.082       .  S
O982        C983   1.336       .  A
C983        C984   1.395       .  A
C984        H988   1.083       .  S
C989        C994   1.378       .  A
C989        C990   1.407       .  A
C989        O995   1.322       .  A
C990        C991   1.407       .  A
C990       H1001   1.082       .  S
C991       C1000   1.367       .  A
C991        C992   1.378       .  A
C992        C993   1.413       .  A
C992        O998   1.327       .  A
C993        C994   1.412       .  A
C993       H1002   1.082       .  S
C994        C997   1.374       .  A
O995        C996   1.334       .  A
C996        C997   1.397       .  A
C997       H1003   1.082       .  S
O998        C999   1.337       .  A
C999       C1000   1.396       .  A
C1000      H1004   1.082       .  S
C1005      C1010   1.381       .  A
C1005      C1006   1.396       .  A
C1005      O1011   1.310       .  A
C1006      C1007   1.393       .  A
C1006      H1017   1.082       .  S
C1007      C1016   1.352       .  A
C1007      C1008   1.379       .  A
C1008      C1009   1.411       .  A
C1008      O1014   1.325       .  A
C1009      C1010   1.411       .  A
C1009      H1018   1.082       .  S
C1010      C1013   1.372       .  A
O1011      C1012   1.327       .  A
C1012      C1013   1.396       .  A
C1013      H1019   1.082       .  S
O1014      C1015   1.335       .  A
C1015      C1016   1.385       .  A
C1016      H1020   1.083       .  S
C1021      C1026   1.379       .  A
C1021      C1022   1.406       .  A
C1021      O1027   1.322       .  A
C1022      C1023   1.406       .  A
C1022      H1033   1.083       .  S
C1023      C1032   1.364       .  A
C1023      C1024   1.378       .  A
C1024      C1025   1.406       .  A
C1024      O1030   1.322       .  A
C1025      C1026   1.406       .  A
C1025      H1034   1.083       .  S
C1026      C1029   1.364       .  A
O1027      C1028   1.332       .  A
C1028      C1029   1.395       .  A
C1029      H1035   1.083       .  S
O1030      C1031   1.334       .  A
C1031      C1032   1.394       .  A
C1032      H1036   1.082       .  S
C1037      C1042   1.380       .  A
C1037      C1038   1.406       .  A
C1037      O1043   1.321       .  A
C1038      C1039   1.406       .  A
C1038      H1049   1.082       .  S
C1039      C1048   1.368       .  A
C1039      C1040   1.382       .  A
C1040      C1041   1.396       .  A
C1040      O1046   1.310       .  A
C1041      C1042   1.394       .  A
C1041      H1050   1.083       .  S
C1042      C1045   1.354       .  A
O1043      C1044   1.332       .  A
C1044      C1045   1.386       .  A
C1045      H1051   1.083       .  S
O1046      C1047   1.327       .  A
C1047      C1048   1.393       .  A
C1048      H1052   1.083       .  S
C1053      C1058   1.379       .  A
C1053      C1054   1.405       .  A
C1053      O1059   1.320       .  A
C1054      C1055   1.404       .  A
C1054      H1065   1.083   1_556  S
C1055      C1064   1.364       .  A
C1055      C1056   1.378       .  A
C1056      C1057   1.411       .  A
C1056      O1062   1.325       .  A
C1057      C1058   1.410       .  A
C1057      H1066   1.083       .  S
C1058      C1061   1.371       .  A
O1059      C1060   1.333       .  A
C1060      C1061   1.397       .  A
C1061      H1067   1.083       .  S
O1062      C1063   1.336       .  A
C1063      C1064   1.393       .  A
C1064      H1068   1.083       .  S
C1069      C1074   1.381       .  A
C1069      C1070   1.402       .  A
C1069      O1075   1.315       .  A
C1070      C1071   1.400       .  A
C1070      H1081   1.081       .  S
C1071      C1080   1.363       .  A
C1071      C1072   1.380       .  A
C1072      C1073   1.405       .  A
C1072      O1078   1.317       .  A
C1073      C1074   1.403       .  A
C1073      H1082   1.081       .  S
C1074      C1077   1.366       .  A
O1075      C1076   1.329       .  A
C1076      C1077   1.390       .  A
C1077      H1083   1.082       .  S
O1078      C1079   1.332       .  A
C1079      C1080   1.389       .  A
C1080      H1084   1.082       .  S
C1085      C1090   1.381       .  A
C1085      C1086   1.404       .  A
C1085      O1091   1.322       .  A
C1086      C1087   1.405       .  A
C1086      H1097   1.082       .  S
C1087      C1096   1.359       .  A
C1087      C1088   1.382       .  A
C1088      C1089   1.399       .  A
C1088      O1094   1.319       .  A
C1089      C1090   1.400       .  A
C1089      H1098   1.081       .  S
C1090      C1093   1.355       .  A
O1091      C1092   1.331       .  A
C1092      C1093   1.388       .  A
C1093      H1099   1.082       .  S
O1094      C1095   1.328       .  A
C1095      C1096   1.393       .  A
C1096      H1100   1.082       .  S
C1101      C1106   1.378       .  A
C1101      C1102   1.412       .  A
C1101      O1107   1.327       .  A
C1102      C1103   1.411       .  A
C1102      H1113   1.082       .  S
C1103      C1112   1.370       .  A
C1103      C1104   1.378       .  A
C1104      C1105   1.409       .  A
C1104      O1110   1.325       .  A
C1105      C1106   1.409       .  A
C1105      H1114   1.082       .  S
C1106      C1109   1.368       .  A
O1107      C1108   1.337       .  A
C1108      C1109   1.397       .  A
C1109      H1115   1.082       .  S
O1110      C1111   1.335       .  A
C1111      C1112   1.396       .  A
C1112      H1116   1.082       .  S
C1117      C1122   1.382       .  A
C1117      C1118   1.395       .  A
C1117      O1123   1.310       .  A
C1118      C1119   1.393       .  A
C1118      H1129   1.082       .  S
C1119      C1128   1.352       .  A
C1119      C1120   1.380       .  A
C1120      C1121   1.407       .  A
C1120      O1126   1.322       .  A
C1121      C1122   1.407       .  A
C1121      H1130   1.082       .  S
C1122      C1125   1.368       .  A
O1123      C1124   1.326       .  A
C1124      C1125   1.393       .  A
C1125      H1131   1.083       .  S
O1126      C1127   1.333       .  A
C1127      C1128   1.384       .  A
C1128      H1132   1.083       .  S
C1133      C1138   1.378       .  A
C1133      C1134   1.409       .  A
C1133      O1139   1.321       .  A
C1134      C1135   1.407       .  A
C1134      H1145   1.082       .  S
C1135      C1144   1.369       .  A
C1135      C1136   1.379       .  A
C1136      C1137   1.406       .  A
C1136      O1142   1.320       .  A
C1137      C1138   1.405       .  A
C1137      H1146   1.082       .  S
C1138      C1141   1.366       .  A
O1139      C1140   1.335       .  A
C1140      C1141   1.394       .  A
C1141      H1147   1.082       .  S
O1142      C1143   1.333       .  A
C1143      C1144   1.394       .  A
C1144      H1148   1.082       .  S
C1149      C1154   1.380       .  A
C1149      C1150   1.409       .  A
C1149      O1155   1.323       .  A
C1150      C1151   1.409       .  A
C1150      H1161   1.082       .  S
C1151      C1160   1.370       .  A
C1151      C1152   1.381       .  A
C1152      C1153   1.396       .  A
C1152      O1158   1.310       .  A
C1153      C1154   1.393       .  A
C1153      H1162   1.082       .  S
C1154      C1157   1.353       .  A
O1155      C1156   1.334       .  A
C1156      C1157   1.385       .  A
C1157      H1163   1.083       .  S
O1158      C1159   1.327       .  A
C1159      C1160   1.395       .  A
C1160      H1164   1.083       .  S
C1165      C1170   1.378       .  A
C1165      C1166   1.408       .  A
C1165      O1171   1.322       .  A
C1166      C1167   1.407       .  A
C1166      H1177   1.082       .  S
C1167      C1176   1.366       .  A
C1167      C1168   1.379       .  A
C1168      C1169   1.407       .  A
C1168      O1174   1.322       .  A
C1169      C1170   1.406       .  A
C1169      H1178   1.082       .  S
C1170      C1173   1.365       .  A
O1171      C1172   1.335       .  A
C1172      C1173   1.395       .  A
C1173      H1179   1.082       .  S
O1174      C1175   1.333       .  A
C1175      C1176   1.394       .  A
C1176      H1180   1.083       .  S
C1181      C1186   1.382       .  A
C1181      C1182   1.397       .  A
C1181      O1187   1.312       .  A
C1182      C1183   1.395       .  A
C1182      H1193   1.082       .  S
C1183      C1192   1.354       .  A
C1183      C1184   1.381       .  A
C1184      C1185   1.406       .  A
C1184      O1190   1.322       .  A
C1185      C1186   1.407       .  A
C1185      H1194   1.082       .  S
C1186      C1189   1.367       .  A
O1187      C1188   1.327       .  A
C1188      C1189   1.393       .  A
C1189      H1195   1.083       .  S
O1190      C1191   1.331       .  A
C1191      C1192   1.385       .  A
C1192      H1196   1.083       .  S
C1197      C1202   1.379       .  A
C1197      C1198   1.410       .  A
C1197      O1203   1.326       .  A
C1198      C1199   1.410       .  A
C1198      H1209   1.082       .  S
C1199      C1208   1.368       .  A
C1199      C1200   1.378       .  A
C1200      C1201   1.407       .  A
C1200      O1206   1.323       .  A
C1201      C1202   1.407       .  A
C1201      H1210   1.082   1_556  S
C1202      C1205   1.365       .  A
O1203      C1204   1.335       .  A
C1204      C1205   1.394       .  A
C1205      H1211   1.082       .  S
O1206      C1207   1.335       .  A
C1207      C1208   1.397       .  A
C1208      H1212   1.081       .  S
C1213      C1218   1.380       .  A
C1213      C1214   1.403       .  A
C1213      O1219   1.315       .  A
C1214      C1215   1.400       .  A
C1214      H1225   1.081       .  S
C1215      C1224   1.364       .  A
C1215      C1216   1.380       .  A
C1216      C1217   1.405       .  A
C1216      O1222   1.317       .  A
C1217      C1218   1.403       .  A
C1217      H1226   1.081       .  S
C1218      C1221   1.366       .  A
O1219      C1220   1.330       .  A
C1220      C1221   1.390       .  A
C1221      H1227   1.082       .  S
O1222      C1223   1.332       .  A
C1223      C1224   1.389       .  A
C1224      H1228   1.082       .  S
C1229      C1234   1.382       .  A
C1229      C1230   1.400       .  A
C1229      O1235   1.320       .  A
C1230      C1231   1.402       .  A
C1230      H1241   1.082       .  S
C1231      C1240   1.356       .  A
C1231      C1232   1.381       .  A
C1232      C1233   1.402       .  A
C1232      O1238   1.322       .  A
C1233      C1234   1.403       .  A
C1233      H1242   1.082       .  S
C1234      C1237   1.357       .  A
O1235      C1236   1.329       .  A
C1236      C1237   1.391       .  A
C1237      H1243   1.082       .  S
O1238      C1239   1.330       .  A
C1239      C1240   1.390       .  A
C1240      H1244   1.082       .  S
C1245      C1250   1.381       .  A
C1245      C1246   1.398       .  A
C1245      O1251   1.312       .  A
C1246      C1247   1.396       .  A
C1246      H1257   1.083       .  S
C1247      C1256   1.356       .  A
C1247      C1248   1.380       .  A
C1248      C1249   1.409       .  A
C1248      O1254   1.324   1_556  A
C1249      C1250   1.409       .  A
C1249      H1258   1.082       .  S
C1250      C1253   1.371       .  A
O1251      C1252   1.329       .  A
C1252      C1253   1.395       .  A
C1253      H1259   1.083       .  S
O1254      C1255   1.333       .  A
C1255      C1256   1.387   1_554  A
C1256      H1260   1.083       .  S
