geometry optimzed in LAMMPS
_audit_creation_date              2020-11-30 
_audit_creation_method            'lammps2cif' 
_symmetry_space_group_name_H-M    'P1' 
_symmetry_Int_Tables_number       1 
_symmetry_cell_setting            triclinic 
loop_ 
_symmetry_equiv_pos_as_xyz 
  x,y,z 
_cell_length_a                    50.09877785 
_cell_length_b                    49.95270300326963 
_cell_length_c                    48.06126578184551 
_cell_angle_alpha                 89.24068724007161 
_cell_angle_beta                  90.67211436677778 
_cell_angle_gamma                 119.7554770341529 
loop_ 
_atom_site_label 
_atom_site_type_symbol 
_atom_site_fract_x 
_atom_site_fract_y 
_atom_site_fract_z 
_atom_site_charge 
O1          O  0.32441976  0.37720205  0.55105718    -0.79900
O2          O  0.30069765  0.38911290  0.67406576    -0.64500
O3          O  0.32944495  0.41073712  0.59946790    -1.11200
C4          C  0.41034001  0.39487844  0.62887004     1.07000
O5          O  0.34765950  0.41710423  0.69152416    -0.77800
O6          O  0.39349728  0.44877250  0.65639473    -0.65300
Ni7        Ni  0.30240353  0.39508434  0.56851015     1.34900
C8          C  0.40040390  0.46004717  0.63205580     0.85800
O9          O  0.28183778  0.40943365  0.63023894    -0.78300
O10         O  0.27822672  0.41148517  0.58357509    -0.88600
C11         C  0.31866532  0.40284140  0.69425331     0.85300
O12         O  0.27435122  0.35543993  0.58312026    -0.66800
O13         O  0.40463352  0.40106531  0.65295266    -0.86100
C14         C  0.27016066  0.34294512  0.60698551     0.86200
C15         C  0.27021014  0.41406832  0.60812107     1.07700
H16         H  0.33745688  0.36761882  0.64243398     0.39500
O17         O  0.34634771  0.38988967  0.64036875    -1.08700
O18         O  0.39036996  0.44367847  0.61018180    -0.65400
Ni19       Ni  0.36122260  0.40065257  0.60307829     1.26300
O20         O  0.28550636  0.35697786  0.62842333    -0.65600
O21         O  0.39343128  0.39104823  0.60769318    -0.77900
C22         C  0.35323865  0.38892974  0.54753937     0.85600
O23         O  0.37213315  0.40835651  0.56470510    -0.65100
Ni24       Ni  0.37442995  0.40797625  0.67042463     1.27400
Ni25       Ni  0.31391193  0.39944462  0.63622409     1.26100
H26         H  0.33870008  0.43287605  0.59811831     0.40100
O27         O  0.38159637  0.31455968  0.45246880    -0.79900
O28         O  0.39568835  0.29204399  0.32767607    -0.64500
O29         O  0.41406202  0.31848196  0.40334059    -1.11200
C30         C  0.39977041  0.40104373  0.37301426     1.07000
O31         O  0.42581328  0.33958704  0.31238439    -0.77800
O32         O  0.45466414  0.38583542  0.34794240    -0.65300
Ni33       Ni  0.39657045  0.29056245  0.43366056     1.34900
C34         C  0.46528028  0.39044887  0.37258291     0.85800
O35         O  0.41489611  0.27228906  0.37152434    -0.78300
O36         O  0.41019665  0.26419559  0.41788042    -0.88600
C37         C  0.41072851  0.31070217  0.30824452     0.85300
O38         O  0.35662543  0.26552290  0.41829448    -0.66800
O39         O  0.40527089  0.39520699  0.34866601    -0.86100
C40         C  0.34610661  0.25987384  0.39362940     0.86200
C41         C  0.41594268  0.25829228  0.39356732     1.07700
H42         H  0.37312695  0.32793864  0.35942761     0.39500
O43         O  0.39504437  0.33674008  0.36192260    -1.08700
O44         O  0.44831034  0.37925487  0.39387279    -0.65400
Ni45       Ni  0.40501687  0.35114570  0.39943042     1.26300
O46         O  0.36187579  0.27418410  0.37236455    -0.65600
O47         O  0.39676511  0.38435176  0.39427888    -0.77900
C48         C  0.39388008  0.34359093  0.45569306     0.85600
O49         O  0.41236609  0.36215741  0.43776840    -0.65100
Ni50       Ni  0.41444152  0.36567503  0.33230128     1.27400
Ni51       Ni  0.40445997  0.30407099  0.36596340     1.26100
H52         H  0.43601293  0.32724147  0.40555070     0.40100
O53         O  0.17869068  0.05215214  0.45191878    -0.79900
O54         O  0.20376014  0.08692541  0.32923276    -0.64500
O55         O  0.17447237  0.08180166  0.40326157    -1.11200
C56         C  0.08966718  0.48898979  0.37416990     1.07000
O57         O  0.15808916  0.07645797  0.31334791    -0.77800
O58         O  0.11236302  0.06390333  0.34841951    -0.65300
Ni59       Ni  0.20111157  0.09242931  0.43447922     1.34900
C60         C  0.10448701  0.06544474  0.37303249     0.85800
O61         O  0.22479557  0.12612914  0.37290890    -0.78300
O62         O  0.22531815  0.13331104  0.41919545    -0.88600
C63         C  0.18613342  0.08474133  0.30912444     0.85300
O64         O  0.22988944  0.08143999  0.42055414    -0.66800
O65         O  0.09554741  0.50252541  0.35043082    -0.86100
C66         C  0.23279889  0.07084524  0.39762569     0.86200
C67         C  0.23509601  0.14300529  0.39456628     1.07700
H68         H  0.16280576  0.03043842  0.35969357     0.39500
O69         O  0.15582939  0.04508708  0.36249586    -1.08700
O70         O  0.11303945  0.05580488  0.39407552    -0.65400
Ni71       Ni  0.14146707  0.04052938  0.39976529     1.26300
O72         O  0.21603112  0.06763449  0.37643915    -0.65600
O73         O  0.10686152  0.50015203  0.39557730    -0.77900
C74         C  0.14979338  0.03546802  0.45549648     0.85600
O75         O  0.13099044  0.03647168  0.43820114    -0.65100
Ni76       Ni  0.12829886  0.04000892  0.33297266     1.27400
Ni77       Ni  0.19056394  0.08535892  0.36693389     1.26100
H78         H  0.16596904  0.09542624  0.40376508     0.40100
O79         O  0.11921715  0.42901866  0.55016842    -0.79900
O80         O  0.10461121  0.39103180  0.67500255    -0.64500
O81         O  0.08592703  0.39912553  0.59889728    -1.11200
C82         C  0.10103605  0.49522939  0.62829523     1.07000
O83         O  0.07132916  0.40542639  0.68707941    -0.77800
O84         O  0.04527768  0.42739175  0.65337059    -0.65300
Ni85       Ni  0.10278656  0.38913688  0.56846907     1.34900
C86         C  0.03437929  0.42036530  0.62901592     0.85800
O87         O  0.08790376  0.35310646  0.63096426    -0.78300
O88         O  0.08778492  0.34871588  0.58423484    -0.88600
C89         C  0.08746943  0.39307655  0.69315243     0.85300
O90         O  0.14232284  0.40223636  0.58397994    -0.66800
O91         O  0.09624737  0.48395487  0.65292114    -0.86100
C92         C  0.15439187  0.41012782  0.60795862     0.86200
C93         C  0.08455283  0.33770341  0.60892827     1.07700
H94         H  0.12611750  0.44928344  0.64207927     0.39500
O95         O  0.10426403  0.43573923  0.63966990    -1.08700
O96         O  0.05091007  0.42468457  0.60772704    -0.65400
Ni97       Ni  0.09427347  0.44029587  0.60218344     1.26300
O98         O  0.13941400  0.40960718  0.62939642    -0.65600
O99         O  0.10211348  0.48119922  0.60686896    -0.77900
C100        C  0.10684746  0.44578062  0.54664073     0.85600
O101        O  0.08715524  0.44435713  0.56376313    -0.65100
Ni102      Ni  0.08500717  0.44452288  0.66904967     1.27400
Ni103      Ni  0.09631252  0.39445655  0.63624137     1.26100
H104        H  0.06396030  0.38576864  0.59713541     0.40100
O105        O  0.06593128  0.16944628  0.54907834    -0.79900
O106        O  0.10568411  0.19585077  0.67251632    -0.64500
O107        O  0.09641798  0.16639270  0.59786381    -1.11200
C108        C  0.50319813  0.08446089  0.63149905     1.07000
O109        O  0.09457708  0.14972306  0.68727951    -0.77800
O110        O  0.07715336  0.10291671  0.65337571    -0.65300
Ni111      Ni  0.10588694  0.19337643  0.56669550     1.34900
C112        C  0.07912612  0.09604196  0.62856320     0.85800
O113        O  0.14265851  0.21554558  0.62807390    -0.78300
O114        O  0.14671279  0.21952321  0.58140358    -0.88600
C115        C  0.10388829  0.17787436  0.69216987     0.85300
O116        O  0.09274265  0.22033787  0.58132504    -0.66800
O117        O  0.01752790  0.09013366  0.65479009    -0.86100
C118        C  0.08564833  0.22448471  0.60555061     0.86200
C119        C  0.15776151  0.22788163  0.60592246     1.07700
H120        H  0.04760823  0.15668419  0.64331274     0.39500
O121        O  0.06143509  0.14881279  0.64003941    -1.08700
O122        O  0.06995866  0.10534564  0.60782414    -0.65400
Ni123      Ni  0.05503384  0.13390072  0.60287493     1.26300
O124        O  0.08589370  0.20931173  0.62684623    -0.65600
O125        O  0.01415650  0.10128976  0.60983037    -0.77900
C126        C  0.04844382  0.14037365  0.54673696     0.85600
O127        O  0.04906738  0.12195501  0.56473348    -0.65100
Ni128      Ni  0.05625875  0.12131811  0.66979259     1.27400
Ni129      Ni  0.10200992  0.18236550  0.63465729     1.26100
H130        H  0.10961647  0.15750469  0.59628332     0.40100
O131        O  0.44262330  0.11064233  0.45268426    -0.79900
O132        O  0.39860390  0.09513696  0.32880592    -0.64500
O133        O  0.41179911  0.07737042  0.40391847    -1.11200
C134        C  0.00439493  0.08911894  0.37282010     1.07000
O135        O  0.41900568  0.06905838  0.30981136    -0.77800
O136        O  0.42677358  0.03522258  0.34854463    -0.65300
Ni137      Ni  0.40266206  0.09470928  0.43488535     1.34900
C138        C  0.42703411  0.02598260  0.37313521     0.85800
O139        O  0.36283534  0.07592360  0.37392333    -0.78300
O140        O  0.36185312  0.08031315  0.42037655    -0.88600
C141        C  0.40319394  0.08246858  0.30806713     0.85300
O142        O  0.41576065  0.13456478  0.41955416    -0.66800
O143        O  0.48903667  0.07748488  0.35061617    -0.86100
C144        C  0.41980479  0.14543729  0.39499259     0.86200
C145        C  0.34889755  0.07449570  0.39642163     1.07700
H146        H  0.45907833  0.11852854  0.35742553     0.39500
O147        O  0.44631110  0.09670256  0.36110392    -1.08700
O148        O  0.43997939  0.04455558  0.39324062    -0.65400
Ni149      Ni  0.45339978  0.08793264  0.39866147     1.26300
O150        O  0.41744238  0.12964377  0.37354159    -0.65600
O151        O  0.49485205  0.09877763  0.39240777    -0.77900
C152        C  0.46009052  0.09895907  0.45514776     0.85600
O153        O  0.45992907  0.08100779  0.43673930    -0.65100
Ni154      Ni  0.45307743  0.07442978  0.33247857     1.27400
Ni155      Ni  0.40456967  0.08677650  0.36684576     1.26100
H156        H  0.39943432  0.05529117  0.40630638     0.40100
O157        O  0.33997452  0.42471030  0.81575380    -0.79900
O158        O  0.36351968  0.40873283  0.93962215    -0.64500
O159        O  0.33867593  0.39260421  0.86364951    -1.11200
C160        C  0.25933635  0.41132349  0.89405897     1.07000
O161        O  0.31608797  0.37626461  0.95312534    -0.77800
O162        O  0.26621431  0.35292938  0.91916733    -0.65300
Ni163      Ni  0.36665881  0.41278963  0.83422788     1.34900
C164        C  0.26268715  0.34156704  0.89500893     0.85800
O165        O  0.38599796  0.39399956  0.89637359    -0.78300
O166        O  0.39589126  0.40292850  0.85056813    -0.88600
C167        C  0.34509854  0.38871914  0.95668827     0.85300
O168        O  0.38752857  0.45274342  0.84972406    -0.66800
O169        O  0.26698462  0.40791095  0.91880175    -0.86100
C170        C  0.39245711  0.46297677  0.87430852     0.86200
C171        C  0.40194240  0.39681883  0.87493947     1.07700
H172        H  0.32841466  0.43255319  0.90599279     0.39500
O173        O  0.31992390  0.41053331  0.90430893    -1.08700
O174        O  0.27783528  0.35713529  0.87400855    -0.65400
Ni175      Ni  0.30506293  0.40021169  0.86701577     1.26300
O176        O  0.38101394  0.44571773  0.89561019    -0.65600
O177        O  0.27179369  0.40830794  0.87214729    -0.77900
C178        C  0.31195952  0.40684674  0.80969337     0.85600
O179        O  0.29302362  0.39088120  0.82856829    -0.65100
Ni180      Ni  0.29249200  0.39271227  0.93461681     1.27400
Ni181      Ni  0.35288529  0.40211864  0.90112147     1.26100
H182        H  0.33072532  0.37078638  0.86118916     0.40100
O183        O  0.42959168  0.33536305  0.18665748    -0.79900
O184        O  0.41038487  0.36011806  0.06323448    -0.64500
O185        O  0.39607423  0.33423179  0.13936833    -1.11200
C186        C  0.41601087  0.25618139  0.10724667     1.07000
O187        O  0.37930904  0.31269357  0.04887626    -0.77800
O188        O  0.35606728  0.26237937  0.08274300    -0.65300
Ni189      Ni  0.41798341  0.36257529  0.16841508     1.34900
C190        C  0.34515850  0.25710745  0.10717803     0.85800
O191        O  0.39694417  0.38229039  0.10757156    -0.78300
O192        O  0.40859046  0.39272807  0.15290585    -0.88600
C193        C  0.39127333  0.34179325  0.04554700     0.85300
O194        O  0.45751048  0.38206280  0.15176851    -0.66800
O195        O  0.41065178  0.26313847  0.08287084    -0.86100
C196        C  0.46674831  0.38688503  0.12682841     0.86200
C197        C  0.40107724  0.39860494  0.12907992     1.07700
H198        H  0.43506608  0.32456886  0.09563490     0.39500
O199        O  0.41314292  0.31595656  0.09771389    -1.08700
O200        O  0.36074051  0.27183701  0.12845746    -0.65400
Ni201      Ni  0.40388248  0.30071101  0.13508414     1.26300
O202        O  0.44849094  0.37673572  0.10609607    -0.65600
O203        O  0.41334335  0.26841126  0.12942655    -0.77900
C204        C  0.41241807  0.30700985  0.19239663     0.85600
O205        O  0.39572522  0.28836665  0.17363694    -0.65100
Ni206      Ni  0.39554884  0.28885920  0.06729024     1.27400
Ni207      Ni  0.40472740  0.34894003  0.10177785     1.26100
H208        H  0.37439987  0.32612873  0.14257376     0.40100
O209        O  0.15665383  0.06249377  0.19169978    -0.79900
O210        O  0.13005117  0.03321158  0.06337098    -0.64500
O211        O  0.15753709  0.03978041  0.13868421    -1.11200
C212        C  0.23230482  0.14106650  0.10763679     1.07000
O213        O  0.17733552  0.05090468  0.04834031    -0.77800
O214        O  0.22822863  0.07842294  0.08109929    -0.65300
Ni215      Ni  0.12887342  0.02921672  0.16830834     1.34900
C216        C  0.23386385  0.07129839  0.10504177     0.85800
O217        O  0.11125933  0.49286989  0.10553744    -0.78300
O218        O  0.09649591  0.49357912  0.14900225    -0.88600
C219        C  0.14837830  0.03393471  0.04507821     0.85300
O220        O  0.11271608  0.05424136  0.15494480    -0.66800
O221        O  0.22443878  0.13058095  0.08295091    -0.86100
C222        C  0.10398700  0.05698861  0.13071182     0.86200
C223        C  0.09242602  0.48080207  0.12545411     1.07700
H224        H  0.16317215  0.09051344  0.09716136     0.39500
O225        O  0.17300254  0.07806706  0.09822491    -1.08700
O226        O  0.21871082  0.06973569  0.12659697    -0.65400
Ni227      Ni  0.18916249  0.08229121  0.13496440     1.26300
O228        O  0.11200442  0.04848348  0.10896513    -0.65600
O229        O  0.22042066  0.12477657  0.12956177    -0.77900
C230        C  0.18570093  0.07850263  0.19358223     0.85600
O231        O  0.20317103  0.08513962  0.17268538    -0.65100
Ni232      Ni  0.19978720  0.09024552  0.06712198     1.27400
Ni233      Ni  0.14207250  0.03585984  0.10139033     1.26100
H234        H  0.16684912  0.02692464  0.14062656     0.40100
O235        O  0.06606589  0.40905859  0.81134211    -0.79900
O236        O  0.08105659  0.44775660  0.93666634    -0.64500
O237        O  0.09567450  0.43795509  0.86094954    -1.11200
C238        C  0.07358451  0.33819979  0.89364241     1.07000
O239        O  0.11105303  0.42941659  0.95075576    -0.77800
O240        O  0.13207863  0.40033663  0.91867976    -0.65300
Ni241      Ni  0.07454916  0.44557092  0.83157094     1.34900
C242        C  0.14431631  0.40914751  0.89491561     0.85800
O243        O  0.09630817  0.48504846  0.89270949    -0.78300
O244        O  0.08123472  0.48321028  0.84827084    -0.88600
C245        C  0.10041871  0.44764377  0.95378501     0.85300
O246        O  0.03474966  0.42324375  0.84751840    -0.66800
O247        O  0.07578201  0.34881860  0.91814049    -0.86100
C248        C  0.02547269  0.42089731  0.87235778     0.86200
C249        C  0.09002871  0.49673013  0.87166072     1.07700
H250        H  0.05463969  0.38856887  0.90371558     0.39500
O251        O  0.07670823  0.40122577  0.90239135    -1.08700
O252        O  0.13001159  0.41110500  0.87370440    -0.65400
Ni253      Ni  0.08735563  0.39641609  0.86570054     1.26300
O254        O  0.04367459  0.42978722  0.89318359    -0.65600
O255        O  0.07832382  0.35452908  0.87161856    -0.77900
C256        C  0.08250957  0.39646021  0.80811721     0.85600
O257        O  0.09748721  0.39351614  0.82814357    -0.65100
Ni258      Ni  0.09269850  0.38951258  0.93324176     1.27400
Ni259      Ni  0.08685168  0.44326787  0.89832761     1.26100
H260        H  0.11743073  0.45139250  0.85791365     0.40100
O261        O  0.07454286  0.14920262  0.80904984    -0.79900
O262        O  0.04198582  0.12446337  0.93661494    -0.64500
O263        O  0.05014152  0.15167946  0.86083943    -1.11200
C264        C  0.15062224  0.22679291  0.89129959     1.07000
O265        O  0.06183486  0.17196129  0.95200342    -0.77800
O266        O  0.08529084  0.22074765  0.91753895    -0.65300
Ni267      Ni  0.03974637  0.12275420  0.83158405     1.34900
C268        C  0.07799723  0.22595365  0.89350013     0.85800
O269        O  0.00305276  0.10582542  0.89426784    -0.78300
O270        O  0.00339498  0.09256856  0.85008358    -0.88600
C271        C  0.04435815  0.14309607  0.95533350     0.85300
O272        O  0.06235327  0.10458952  0.84616651    -0.66800
O273        O  0.13944078  0.22012063  0.91572816    -0.86100
C274        C  0.06490106  0.09660860  0.87076306     0.86200
C275        C  0.49067461  0.08792634  0.87373836     1.07700
H276        H  0.09984579  0.15701779  0.90312242     0.39500
O277        O  0.08773200  0.16716197  0.90159736    -1.08700
O278        O  0.07963463  0.21264051  0.87177515    -0.65400
Ni279      Ni  0.09254297  0.18299457  0.86443099     1.26300
O280        O  0.05707540  0.10582057  0.89206553    -0.65600
O281        O  0.13500365  0.21400921  0.86941212    -0.77900
C282        C  0.09165367  0.17817937  0.80657681     0.85600
O283        O  0.09624541  0.19639681  0.82644524    -0.65100
Ni284      Ni  0.09994811  0.19475106  0.93208658     1.27400
Ni285      Ni  0.04537783  0.13661374  0.89846525     1.26100
H286        H  0.03753652  0.16119984  0.85838921     0.40100
O287        O  0.42089563  0.06848953  0.19364307    -0.79900
O288        O  0.45995421  0.07976065  0.06662216    -0.64500
O289        O  0.44857791  0.09431209  0.14233958    -1.11200
C290        C  0.35178371  0.07754818  0.10654273     1.07000
O291        O  0.44428960  0.11179798  0.05186769    -0.77800
O292        O  0.41627308  0.13433667  0.08348996    -0.65300
Ni293      Ni  0.45305447  0.06997129  0.17095657     1.34900
C294        C  0.42423508  0.14630461  0.10739325     0.85800
O295        O  0.49531736  0.09336791  0.11156960    -0.78300
O296        O  0.48703033  0.06938909  0.15278465    -0.88600
C297        C  0.46102707  0.09944826  0.04906876     0.85300
O298        O  0.42395637  0.03191722  0.15471226    -0.66800
O299        O  0.36313944  0.07995895  0.08233289    -0.86100
C300        C  0.42499306  0.02283518  0.13044724     0.86200
C301        C  0.00326219  0.08135174  0.13108987     1.07700
H302        H  0.40003299  0.05548111  0.09796866     0.39500
O303        O  0.41340354  0.07747249  0.09968088    -1.08700
O304        O  0.42470010  0.13135578  0.12882911    -0.65400
Ni305      Ni  0.40787100  0.08796696  0.13623086     1.26300
O306        O  0.43885130  0.04170141  0.11049771    -0.65600
O307        O  0.36703652  0.08104134  0.12898842    -0.77900
C308        C  0.40643564  0.08339635  0.19456056     0.85600
O309        O  0.40341151  0.09732416  0.17361822    -0.65100
Ni310      Ni  0.40404552  0.09498572  0.06842312     1.27400
Ni311      Ni  0.45447423  0.08560834  0.10493953     1.26100
H312        H  0.46273787  0.11577503  0.14614381     0.40100
C313        C  0.48954091  0.08975399  0.01118712     0.24600
C314        C  0.48352708  0.11025126  0.02602183    -0.23500
C315        C  0.99866825  0.14155992  0.01822086     0.19500
C316        C  0.01931591  0.15223732  0.99612454     0.24600
C317        C  0.02464016  0.13167821  0.98048980    -0.23400
C318        C  0.50961514  0.10027047  0.98838740     0.19500
F319        F  0.51395243  0.07960051  0.97389786    -0.13400
F320        F  0.47483331  0.05928769  0.01789074    -0.15700
F321        F  0.03314930  0.18271522  0.98946259    -0.15700
F322        F  0.99348237  0.16209369  0.03199965    -0.13400
C323        C  0.05866821  0.28656292  0.91499657     0.24600
C324        C  0.06707626  0.30576081  0.89118465    -0.23500
C325        C  0.07268061  0.29469380  0.86625651     0.19500
C326        C  0.07280135  0.26664290  0.86606668     0.24600
C327        C  0.06882370  0.24997749  0.89103226    -0.23400
C328        C  0.05972212  0.25921539  0.91494666     0.19500
F329        F  0.05308880  0.24243450  0.93889653    -0.13400
F330        F  0.05109314  0.29497776  0.93908971    -0.15700
F331        F  0.07884811  0.25699704  0.84186180    -0.15700
F332        F  0.08031620  0.31190966  0.84252564    -0.13400
C333        C  0.07550402  0.03088036  0.89817100     0.24600
C334        C  0.08959393  0.02597264  0.87516153    -0.23500
C335        C  0.09920066  0.04697894  0.85279366     0.19500
C336        C  0.09331992  0.07144729  0.85261465     0.24600
C337        C  0.07643943  0.07466324  0.87423093    -0.23400
C338        C  0.06827247  0.05462380  0.89746322     0.19500
F339        F  0.05123483  0.05636037  0.91841829    -0.13400
F340        F  0.07073446  0.51373974  0.92083438    -0.15700
F341        F  0.10303236  0.09125457  0.83056158    -0.15700
F342        F  0.11322444  0.04308196  0.83045960    -0.13400
C343        C  0.09474404  0.48151948  0.98869828     0.24600
C344        C  0.11275963  0.47048004  0.97649780    -0.23500
C345        C  0.14314805  0.48174559  0.98599675     0.19500
C346        C  0.15476989  0.00353661  0.00706549     0.24600
C347        C  0.13610802  0.01287601  0.02083546    -0.23400
C348        C  0.10640362  0.50232920  0.01080827     0.19500
F349        F  0.08668474  0.00950710  0.02430900    -0.13400
F350        F  0.06549770  0.47148192  0.97980491    -0.15700
F351        F  0.18461544  0.01470220  0.01465462    -0.15700
F352        F  0.16160433  0.47235535  0.97419342    -0.13400
C353        C  0.07617979  0.08180014  0.15183420     0.24600
C354        C  0.08199285  0.06880378  0.12837768    -0.23500
C355        C  0.06382435  0.06385659  0.10423637     0.19500
C356        C  0.03876042  0.06909210  0.10457936     0.24600
C357        C  0.03197093  0.08008245  0.12876431    -0.23400
C358        C  0.05130552  0.08700522  0.15206879     0.19500
F359        F  0.04551168  0.09800963  0.17556207    -0.13400
F360        F  0.09392649  0.08859653  0.17511433    -0.15700
F361        F  0.01974235  0.06107193  0.08209360    -0.15700
F362        F  0.06912647  0.05234647  0.08080714    -0.13400
C363        C  0.27055676  0.05660121  0.08519650     0.24600
C364        C  0.26085445  0.06684159  0.10796839    -0.23500
C365        C  0.27977623  0.07728092  0.13182495     0.19500
C366        C  0.30873744  0.07931332  0.13208567     0.24600
C367        C  0.31947623  0.07125974  0.10831380    -0.23400
C368        C  0.29958795  0.05915011  0.08518208     0.19500
F369        F  0.30847883  0.05049746  0.06200265    -0.13400
F370        F  0.25221281  0.04493276  0.06242191    -0.15700
F371        F  0.32691300  0.09108289  0.15495372    -0.15700
F372        F  0.27131377  0.08774369  0.15412574    -0.13400
C373        C  0.01199070  0.42741605  0.10004323     0.24600
C374        C  0.50035470  0.40615931  0.12230570    -0.23500
C375        C  0.02109066  0.40611531  0.14237433     0.19500
C376        C  0.05206150  0.42899762  0.14196933     0.24600
C377        C  0.06308052  0.45193909  0.12116439    -0.23400
C378        C  0.04316504  0.45014516  0.09948576     0.19500
F379        F  0.05307433  0.47240658  0.07946847    -0.13400
F380        F  0.49271498  0.42812844  0.08031798    -0.15700
F381        F  0.07094982  0.42985624  0.16287199    -0.15700
F382        F  0.01105485  0.38477315  0.16323480    -0.13400
C383        C  0.30596011  0.21033751  0.13331922     0.24600
C384        C  0.31335368  0.23095315  0.11066764    -0.23500
C385        C  0.29173500  0.22341009  0.08897611     0.19500
C386        C  0.26452473  0.19492655  0.08877792     0.24600
C387        C  0.25788447  0.17342873  0.11058361    -0.23400
C388        C  0.27828869  0.18207857  0.13349060     0.19500
F389        F  0.27274964  0.16222481  0.15508777    -0.13400
F390        F  0.32670161  0.21618906  0.15409961    -0.15700
F391        F  0.24516464  0.18799405  0.06664767    -0.15700
F392        F  0.29757163  0.24316368  0.06723471    -0.13400
C393        C  0.41409893  0.44717358  0.10337551     0.24600
C394        C  0.39965695  0.42735919  0.12611138    -0.23500
C395        C  0.38861780  0.43763687  0.14789420     0.19500
C396        C  0.39392376  0.46788778  0.14789196     0.24600
C397        C  0.41164275  0.48889190  0.12670551    -0.23400
C398        C  0.42028132  0.47771021  0.10373131     0.19500
F399        F  0.44040169  0.99835025  0.08363899    -0.13400
F400        F  0.42525272  0.43804787  0.08212821    -0.15700
F401        F  0.38310346  0.47699602  0.16946394    -0.15700
F402        F  0.37397390  0.41885015  0.16988557    -0.13400
C403        C  0.42396482  0.18871161  0.13478820     0.24600
C404        C  0.43073683  0.17848007  0.11008053    -0.23500
C405        C  0.43822967  0.19726033  0.08614613     0.19500
C406        C  0.43474968  0.22322389  0.08567167     0.24600
C407        C  0.42489343  0.23190220  0.10951334    -0.23400
C408        C  0.42157462  0.21553374  0.13462738     0.19500
F409        F  0.41409347  0.22418231  0.15865039    -0.13400
F410        F  0.41720273  0.17155719  0.15852304    -0.15700
F411        F  0.43996850  0.23914681  0.06134989    -0.15700
F412        F  0.44729243  0.18950923  0.06250458    -0.13400
C413        C  0.20285690  0.25969061  0.91208978     0.24600
C414        C  0.18295801  0.25212574  0.88890925    -0.23500
C415        C  0.19281379  0.27190307  0.86550225     0.19500
C416        C  0.22028235  0.30022229  0.86659024     0.24600
C417        C  0.23836137  0.30911579  0.89103124    -0.23400
C418        C  0.23027601  0.28781744  0.91307907     0.19500
F419        F  0.24833676  0.29476159  0.93615946    -0.13400
F420        F  0.19500482  0.24055520  0.93456574    -0.15700
F421        F  0.22769240  0.32001067  0.84464515    -0.15700
F422        F  0.17466553  0.26526267  0.84251514    -0.13400
C423        C  0.41783086  0.01647012  0.85373486     0.24600
C424        C  0.41344773  0.49653628  0.87762593    -0.23500
C425        C  0.43334945  0.50826006  0.90076099     0.19500
C426        C  0.45486600  0.04053009  0.90110544     0.24600
C427        C  0.46106036  0.05903594  0.87703342    -0.23400
C428        C  0.44165528  0.04691456  0.85374334     0.19500
F429        F  0.44700856  0.06401916  0.83010885    -0.13400
F430        F  0.40038394  0.00566532  0.83033002    -0.15700
F431        F  0.97369994  0.05125100  0.92367326    -0.15700
F432        F  0.43178591  0.48926269  0.92192756    -0.13400
C433        C  0.22648578  0.43195619  0.91223587     0.24600
C434        C  0.23320610  0.41714303  0.89094944    -0.23500
C435        C  0.21230446  0.40414794  0.86864168     0.19500
C436        C  0.18404278  0.40344027  0.86901715     0.24600
C437        C  0.17623928  0.41570525  0.89165892    -0.23400
C438        C  0.19811365  0.43095702  0.91272722     0.19500
F439        F  0.19163873  0.44414042  0.93421962    -0.13400
F440        F  0.24701766  0.44657042  0.93307649    -0.15700
F441        F  0.16326890  0.38836042  0.84845007    -0.15700
F442        F  0.21801544  0.38983220  0.84760317    -0.13400
C443        C  0.44049790  0.38417094  0.85664538     0.24600
C444        C  0.43050537  0.39547973  0.87834414    -0.23500
C445        C  0.45063115  0.41077657  0.90064082     0.19500
C446        C  0.48108684  0.41682898  0.90002771     0.24600
C447        C  0.99205882  0.40846880  0.87666274    -0.23400
C448        C  0.47097352  0.39081212  0.85564179     0.19500
F449        F  0.98015991  0.38111101  0.83331590    -0.13400
F450        F  0.42111454  0.36813974  0.83549064    -0.15700
F451        F  0.50030770  0.43304174  0.92120930    -0.15700
F452        F  0.44181225  0.42262930  0.92160457    -0.13400
C453        C  0.34326663  0.34550348  0.98497948     0.24600
C454        C  0.35732436  0.37730292  0.97939633    -0.23500
C455        C  0.38363538  0.39748708  0.99476817     0.19500
C456        C  0.39492746  0.38614972  0.01607060     0.24600
C457        C  0.38075318  0.35415740  0.02183027    -0.23400
C458        C  0.35518118  0.33401293  0.00539106     0.19500
F459        F  0.34131175  0.30298204  0.00904685    -0.13400
F460        F  0.31830490  0.32526594  0.97003913    -0.15700
F461        F  0.41979790  0.40660367  0.03093739    -0.15700
F462        F  0.39799250  0.42831323  0.98963714    -0.13400
C463        C  0.37489622  0.05614230  0.26513442     0.24600
C464        C  0.39160240  0.08374783  0.28004572    -0.23500
C465        C  0.40560302  0.11193097  0.26538630     0.19500
C466        C  0.40644682  0.11224179  0.23621837     0.24600
C467        C  0.39368277  0.08435473  0.22167324    -0.23400
C468        C  0.37578971  0.05650565  0.23607119     0.19500
F469        F  0.36204132  0.02940238  0.22208172    -0.13400
F470        F  0.36080796  0.02857213  0.27874215    -0.15700
F471        F  0.42335424  0.13943774  0.22253151    -0.15700
F472        F  0.42241841  0.13877325  0.27926294    -0.13400
C473        C  0.10228392  0.20770417  0.73329894     0.24600
C474        C  0.11191704  0.18832640  0.72130012    -0.23500
C475        C  0.12304830  0.17320690  0.73882000     0.19500
C476        C  0.12056455  0.17391057  0.76759052     0.24600
C477        C  0.10659199  0.18938456  0.77940288    -0.23400
C478        C  0.09961278  0.20820099  0.76237662     0.19500
F479        F  0.08674927  0.22394109  0.77352266    -0.13400
F480        F  0.09184673  0.22298439  0.71697412    -0.15700
F481        F  0.12855027  0.15649091  0.78383319    -0.15700
F482        F  0.13341958  0.15507141  0.72802783    -0.13400
C483        C  0.01311640  0.14681735  0.51383294     0.24600
C484        C  0.02537705  0.12853735  0.52373096    -0.23500
C485        C  0.51514374  0.09948217  0.51155613     0.19500
C486        C  0.49427964  0.08978607  0.48898911     0.24600
C487        C  0.48231374  0.10845100  0.47894610    -0.23400
C488        C  0.99206237  0.13702230  0.49181291     0.19500
F489        F  0.98179905  0.15615996  0.48267625    -0.13400
F490        F  0.02090357  0.17412586  0.52602996    -0.15700
F491        F  0.48559176  0.06205748  0.47722881    -0.15700
F492        F  0.52560136  0.08065637  0.52119169    -0.13400
C493        C  0.05689847  0.36946839  0.73565410     0.24600
C494        C  0.08539582  0.38184022  0.72205697    -0.23500
C495        C  0.11216143  0.39104995  0.73807554     0.19500
C496        C  0.11096993  0.39238919  0.76720390     0.24600
C497        C  0.08302391  0.38480912  0.78022536    -0.23400
C498        C  0.05578125  0.37127564  0.76446900     0.19500
F499        F  0.02829912  0.36232396  0.77678587    -0.13400
F500        F  0.03034717  0.35857118  0.72078662    -0.15700
F501        F  0.13751399  0.40444162  0.78217171    -0.15700
F502        F  0.13983169  0.40232962  0.72546583    -0.13400
C503        C  0.06203585  0.28422624  0.59082256     0.24600
C504        C  0.07844325  0.30577114  0.61175932    -0.23500
C505        C  0.09276032  0.29788787  0.63312333     0.19500
C506        C  0.09308176  0.27013338  0.63206741     0.24600
C507        C  0.07924441  0.24994402  0.60958360    -0.23400
C508        C  0.06272950  0.25665400  0.58954264     0.19500
F509        F  0.04790990  0.23688702  0.56837518    -0.13400
F510        F  0.04615873  0.29039140  0.57108763    -0.15700
F511        F  0.10925443  0.26431814  0.65176002    -0.15700
F512        F  0.10868705  0.31810026  0.65374068    -0.13400
C513        C  0.08576117  0.02934600  0.60125033     0.24600
C514        C  0.10095989  0.02417264  0.62374023    -0.23500
C515        C  0.11310527  0.04562775  0.64532504     0.19500
C516        C  0.10809620  0.07055915  0.64569330     0.24600
C517        C  0.09091010  0.07463602  0.62433647    -0.23400
C518        C  0.08115727  0.05471786  0.60134582     0.19500
F519        F  0.06455200  0.05790410  0.58032111    -0.13400
F520        F  0.07237519  0.00814044  0.58077238    -0.15700
F521        F  0.11836732  0.08951464  0.66803329    -0.15700
F522        F  0.12798657  0.04125587  0.66718922    -0.13400
C523        C  0.20880390  0.07473507  0.26706082     0.24600
C524        C  0.19721360  0.09188987  0.28012671    -0.23500
C525        C  0.18903721  0.11020923  0.26366363     0.19500
C526        C  0.18971305  0.10924301  0.23465802     0.24600
C527        C  0.19810144  0.08959554  0.22157815    -0.23400
C528        C  0.20897697  0.07338740  0.23786730     0.19500
F529        F  0.21590399  0.05323546  0.22566624    -0.13400
F530        F  0.21607866  0.05619140  0.28237653    -0.15700
F531        F  0.17869350  0.12470950  0.21930498    -0.15700
F532        F  0.17748387  0.12672898  0.27567184    -0.13400
C533        C  0.09885859  0.48070556  0.51325089     0.24600
C534        C  0.11737931  0.46876825  0.52345702    -0.23500
C535        C  0.14680205  0.47991112  0.51193800     0.19500
C536        C  0.15680268  0.00133117  0.48993501     0.24600
C537        C  0.13831786  0.01289931  0.47892791    -0.23400
C538        C  0.10945386  0.50308025  0.49194876     0.19500
F539        F  0.09153956  0.51503025  0.48352144    -0.13400
F540        F  0.07033584  0.47055211  0.52371371    -0.15700
F541        F  0.18507863  0.01041668  0.47931644    -0.15700
F542        F  0.16572819  0.97087272  0.52273068    -0.13400
C543        C  0.05548986  0.10117535  0.35513264     0.24600
C544        C  0.03357553  0.08927792  0.37632301    -0.23500
C545        C  0.03763442  0.07345931  0.39887747     0.19500
C546        C  0.06167811  0.06678790  0.39871914     0.24600
C547        C  0.08288408  0.07731100  0.37661902    -0.23400
C548        C  0.08036882  0.09595085  0.35562460     0.19500
F549        F  0.10126625  0.10801612  0.33479669    -0.13400
F550        F  0.05221527  0.11704768  0.33345580    -0.15700
F551        F  0.06254743  0.04791520  0.41887504    -0.15700
F552        F  0.51683032  0.06222370  0.41983303    -0.13400
C553        C  0.26950315  0.05616273  0.41923933     0.24600
C554        C  0.25844439  0.06420007  0.39534949    -0.23500
C555        C  0.27517907  0.07067827  0.37045744     0.19500
C556        C  0.30398138  0.07244230  0.37027921     0.24600
C557        C  0.31628315  0.06706607  0.39489895    -0.23400
C558        C  0.29797033  0.05739780  0.41898012     0.19500
F559        F  0.30809070  0.05023473  0.44274179    -0.13400
F560        F  0.25324760  0.04817814  0.44327408    -0.15700
F561        F  0.32069639  0.08173434  0.34650598    -0.15700
F562        F  0.26495234  0.07787542  0.34679118    -0.13400
C563        C  0.44006836  0.31493946  0.26564327     0.24600
C564        C  0.41209184  0.29983690  0.28004261    -0.23500
C565        C  0.38521785  0.27932504  0.26538443     0.19500
C566        C  0.38559935  0.27821479  0.23610677     0.24600
C567        C  0.41296988  0.29720681  0.22155714    -0.23400
C568        C  0.44057002  0.31315837  0.23675047     0.19500
F569        F  0.46785536  0.32930604  0.22336834    -0.13400
F570        F  0.46672081  0.33342889  0.27941471    -0.15700
F571        F  0.35883035  0.26116529  0.22202103    -0.15700
F572        F  0.35815082  0.26289645  0.27899759    -0.13400
C573        C  0.42607919  0.48139400  0.39807011     0.24600
C574        C  0.41419395  0.49266980  0.37721143    -0.23500
C575        C  0.39265990  0.47166830  0.35803704     0.19500
C576        C  0.38615133  0.44098373  0.35762901     0.24600
C577        C  0.40008854  0.43046250  0.37706061    -0.23400
C578        C  0.41894150  0.45053513  0.39805485     0.19500
F579        F  0.43305057  0.44113310  0.41690828    -0.13400
F580        F  0.44674828  0.50071478  0.41703614    -0.15700
F581        F  0.36715812  0.42187130  0.33760918    -0.15700
F582        F  0.37812149  0.98081917  0.33950365    -0.13400
C583        C  0.41314465  0.21349049  0.36773921     0.24600
C584        C  0.42286569  0.23281674  0.39115302    -0.23500
C585        C  0.43618403  0.22546836  0.41376271     0.19500
C586        C  0.43739696  0.19814150  0.41404096     0.24600
C587        C  0.42535632  0.17743024  0.39164836    -0.23400
C588        C  0.41433944  0.18602183  0.36799502     0.19500
F589        F  0.40235235  0.16672713  0.34601001    -0.13400
F590        F  0.40024690  0.21986718  0.34545650    -0.15700
F591        F  0.44928282  0.19139959  0.43685625    -0.15700
F592        F  0.44719604  0.24432862  0.43613737    -0.13400
C593        C  0.01849103  0.41571791  0.35348499     0.24600
C594        C  0.49892439  0.41092669  0.37607493    -0.23500
C595        C  0.01149043  0.42855645  0.40032178     0.19500
C596        C  0.04203381  0.45280555  0.40057935     0.24600
C597        C  0.06042083  0.45956662  0.37671316    -0.23400
C598        C  0.04870312  0.44000501  0.35364038     0.19500
F599        F  0.06611978  0.44520981  0.33060425    -0.13400
F600        F  0.00803724  0.39757493  0.33061882    -0.15700
F601        F  0.05265763  0.47128565  0.42322067    -0.15700
F602        F  0.49379737  0.42385263  0.42304311    -0.13400
C603        C  0.29220152  0.22668889  0.41005010     0.24600
C604        C  0.31474631  0.23344809  0.38980066    -0.23500
C605        C  0.30902293  0.21160866  0.36901604     0.19500
C606        C  0.28244030  0.18259969  0.36990508     0.24600
C607        C  0.26071029  0.17512177  0.39121124    -0.23400
C608        C  0.26535503  0.19792223  0.41065709     0.19500
F609        F  0.24439992  0.19207968  0.43087345    -0.13400
F610        F  0.29681526  0.24756372  0.43002231    -0.15700
F611        F  0.27933385  0.16099302  0.35128712    -0.15700
F612        F  0.33045210  0.21715196  0.34934335    -0.13400
C613        C  0.28873173  0.37643185  0.73711886     0.24600
C614        C  0.30687799  0.40375481  0.72194939    -0.23500
C615        C  0.31999929  0.43216394  0.73568467     0.19500
C616        C  0.31766660  0.43315665  0.76445274     0.24600
C617        C  0.30288410  0.40572665  0.78018400    -0.23400
C618        C  0.28670311  0.37740109  0.76622641     0.19500
F619        F  0.27228913  0.35054525  0.78088391    -0.13400
F620        F  0.27639612  0.34869434  0.72432781    -0.15700
F621        F  0.33273775  0.46090481  0.77730555    -0.15700
F622        F  0.33782320  0.45887280  0.72155480    -0.13400
C623        C  0.23880812  0.28990230  0.58843512     0.24600
C624        C  0.24486901  0.31102963  0.60986297    -0.23500
C625        C  0.22394573  0.30289518  0.63185026     0.19500
C626        C  0.19642637  0.27478173  0.63147578     0.24600
C627        C  0.18917527  0.25455674  0.60884177    -0.23400
C628        C  0.21111873  0.26198153  0.58779103     0.19500
F629        F  0.20545357  0.24265615  0.56614567    -0.13400
F630        F  0.25932778  0.29688312  0.56755649    -0.15700
F631        F  0.17586225  0.26860595  0.65216113    -0.15700
F632        F  0.22878754  0.32328105  0.65239511    -0.13400
C633        C  0.43036285  0.51231585  0.65356305     0.24600
C634        C  0.42278040  0.49353379  0.62977284    -0.23500
C635        C  0.43934968  0.00815845  0.60490149     0.19500
C636        C  0.46440210  0.03827423  0.60497011     0.24600
C637        C  0.47314349  0.05574187  0.62954366    -0.23400
C638        C  0.45485849  0.04350221  0.65335103     0.19500
F639        F  0.96183641  0.06020264  0.67709736    -0.13400
F640        F  0.41376674  0.50181449  0.67734353    -0.15700
F641        F  0.48152667  0.04934732  0.58155177    -0.15700
F642        F  0.43304845  0.99133145  0.58133861    -0.13400
C643        C  0.23469006  0.43078122  0.58716803     0.24600
C644        C  0.24455947  0.42076069  0.61064398    -0.23500
C645        C  0.22695603  0.41312912  0.63517730     0.19500
C646        C  0.19839030  0.41186878  0.63508787     0.24600
C647        C  0.18713606  0.41863944  0.61061486    -0.23400
C648        C  0.20629206  0.42958619  0.58712221     0.19500
F649        F  0.19686289  0.43767122  0.56344006    -0.13400
F650        F  0.25181834  0.44043741  0.56363667    -0.15700
F651        F  0.18067278  0.40135735  0.65820897    -0.15700
F652        F  0.23615734  0.40464619  0.65873875    -0.13400
C653        C  0.48828424  0.41347689  0.60195440     0.24600
C654        C  0.00088391  0.40752036  0.62595711    -0.23500
C655        C  0.48165666  0.39245091  0.64879963     0.19500
C656        C  0.45124736  0.38588899  0.64862048     0.24600
C657        C  0.43930459  0.39430991  0.62569200    -0.23400
C658        C  0.45775604  0.40724955  0.60192495     0.19500
F659        F  0.44738135  0.41674499  0.57980163    -0.13400
F660        F  0.00617133  0.42781959  0.57953244    -0.15700
F661        F  0.43398393  0.37296969  0.67170914    -0.15700
F662        F  0.49268570  0.38542844  0.67207069    -0.13400
C663        C  0.34574426  0.34752890  0.51424786     0.24600
C664        C  0.36429195  0.37767709  0.52431421    -0.23500
C665        C  0.39317384  0.39649045  0.51204403     0.19500
C666        C  0.40294112  0.38566477  0.48970825     0.24600
C667        C  0.38434922  0.35544610  0.47969161    -0.23400
C668        C  0.35567980  0.33654115  0.49239455     0.19500
F669        F  0.33661919  0.30748553  0.48319389    -0.13400
F670        F  0.31799025  0.32825624  0.52584101    -0.15700
F671        F  0.43067537  0.40474102  0.47805326    -0.15700
F672        F  0.41168063  0.42564475  0.52123588    -0.13400
O673        O  0.32425987  0.87857342  0.54976214    -0.79900
O674        O  0.29981723  0.88941714  0.67301023    -0.64500
O675        O  0.32859510  0.91152567  0.59829900    -1.11200
C676        C  0.40933847  0.89510399  0.62828488     1.07000
O677        O  0.34688600  0.91880168  0.68956898    -0.77800
O678        O  0.39415110  0.94949935  0.65561835    -0.65300
Ni679      Ni  0.30170691  0.89586781  0.56721109     1.34900
C680        C  0.40032670  0.96124447  0.63140206     0.85800
O681        O  0.28083743  0.90977297  0.62901417    -0.78300
O682        O  0.27703364  0.91177855  0.58232898    -0.88600
C683        C  0.31798537  0.90365461  0.69299587     0.85300
O684        O  0.27375707  0.85583844  0.58137841    -0.66800
O685        O  0.40311947  0.90027812  0.65259712    -0.86100
C686        C  0.26935247  0.84327737  0.60524311     0.86200
C687        C  0.26912179  0.91436667  0.60693671     1.07700
H688        H  0.33687440  0.86852303  0.64095814     0.39500
O689        O  0.34566130  0.89079909  0.63913034    -1.08700
O690        O  0.38951684  0.94523787  0.60937346    -0.65400
Ni691      Ni  0.36079421  0.90199748  0.60203693     1.26300
O692        O  0.28456161  0.85735600  0.62679396    -0.65600
O693        O  0.39327384  0.89284592  0.60685360    -0.77900
C694        C  0.35311269  0.89005680  0.54659200     0.85600
O695        O  0.37186309  0.90973811  0.56370060    -0.65100
Ni696      Ni  0.37342689  0.90850857  0.66944857     1.27400
Ni697      Ni  0.31295013  0.89991671  0.63500200     1.26100
H698        H  0.33762805  0.93364866  0.59705614     0.40100
O699        O  0.38062431  0.81399321  0.45210890    -0.79900
O700        O  0.39546444  0.79209776  0.32784450    -0.64500
O701        O  0.41390015  0.81821555  0.40351069    -1.11200
C702        C  0.39932407  0.90077412  0.37332731     1.07000
O703        O  0.42590259  0.83966949  0.31282060    -0.77800
O704        O  0.45440311  0.88659135  0.34819901    -0.65300
Ni705      Ni  0.39637741  0.79028451  0.43379547     1.34900
C706        C  0.46524875  0.89098972  0.37277203     0.85800
O707        O  0.41448258  0.77199077  0.37177530    -0.78300
O708        O  0.41087829  0.76445131  0.41829146    -0.88600
C709        C  0.41036376  0.81083428  0.30841110     0.85300
O710        O  0.35672670  0.76431667  0.41815988    -0.66800
O711        O  0.40430277  0.89474719  0.34884272    -0.86100
C712        C  0.34624085  0.75898224  0.39346734     0.86200
C713        C  0.41607940  0.75828891  0.39383992     1.07700
H714        H  0.37308100  0.82794981  0.35985490     0.39500
O715        O  0.39501130  0.83672991  0.36223156    -1.08700
O716        O  0.44850139  0.87916451  0.39412978    -0.65400
Ni717      Ni  0.40511128  0.85104342  0.39972455     1.26300
O718        O  0.36173305  0.77407137  0.37237425    -0.65600
O719        O  0.39704088  0.88440036  0.39465899    -0.77900
C720        C  0.39349082  0.84303936  0.45578055     0.85600
O721        O  0.41240629  0.86169757  0.43814376    -0.65100
Ni722      Ni  0.41412391  0.86561940  0.33255928     1.27400
Ni723      Ni  0.40428996  0.80394759  0.36615696     1.26100
H724        H  0.43584456  0.82690909  0.40570604     0.40100
O725        O  0.17864895  0.55293959  0.45299882    -0.79900
O726        O  0.20286660  0.58520238  0.32967632    -0.64500
O727        O  0.17454305  0.58183599  0.40378754    -1.11200
C728        C  0.09039142  0.98891410  0.37329624     1.07000
O729        O  0.15757470  0.57629942  0.31437548    -0.77800
O730        O  0.11128204  0.56332317  0.34904336    -0.65300
Ni731      Ni  0.20142245  0.59268255  0.43479882     1.34900
C732        C  0.10438467  0.56614006  0.37370015     0.85800
O733        O  0.22485316  0.62507762  0.37252655    -0.78300
O734        O  0.22598099  0.63303287  0.41871228    -0.88600
C735        C  0.18531403  0.58366387  0.30977439     0.85300
O736        O  0.22952829  0.58071684  0.42104328    -0.66800
O737        O  0.09591820  0.00285740  0.34975714    -0.86100
C738        C  0.23219935  0.56991134  0.39814207     0.86200
C739        C  0.23549490  0.64223074  0.39393342     1.07700
H740        H  0.16156543  0.52963987  0.36089513     0.39500
O741        O  0.15496825  0.54461914  0.36346969    -1.08700
O742        O  0.11336866  0.55716749  0.39492782    -0.65400
Ni743      Ni  0.14089317  0.54081544  0.40075992     1.26300
O744        O  0.21522236  0.56645895  0.37705996    -0.65600
O745        O  0.10816033  0.99957530  0.39437936    -0.77900
C746        C  0.14976091  0.53625885  0.45662820     0.85600
O747        O  0.13084630  0.53726323  0.43940032    -0.65100
Ni748      Ni  0.12769973  0.53972385  0.33378060     1.27400
Ni749      Ni  0.19016409  0.58454306  0.36735025     1.26100
H750        H  0.16646164  0.59582445  0.40411913     0.40100
O751        O  0.11791827  0.92830828  0.54891822    -0.79900
O752        O  0.10301602  0.89008397  0.67374967    -0.64500
O753        O  0.08474545  0.89817320  0.59744344    -1.11200
C754        C  0.09916029  0.99415292  0.62727601     1.07000
O755        O  0.06941775  0.90419786  0.68512722    -0.77800
O756        O  0.04394947  0.92715295  0.65210910    -0.65300
Ni757      Ni  0.10205998  0.88849848  0.56715995     1.34900
C758        C  0.03281717  0.91933012  0.62791322     0.85800
O759        O  0.08672908  0.85219280  0.62959535    -0.78300
O760        O  0.08756697  0.84807850  0.58290971    -0.88600
C761        C  0.08576598  0.89225669  0.69171179     0.85300
O762        O  0.14172677  0.90238841  0.58279980    -0.66800
O763        O  0.09539536  0.98317292  0.65195466    -0.86100
C764        C  0.15345093  0.91013642  0.60692087     0.86200
C765        C  0.08387176  0.83690604  0.60758660     1.07700
H766        H  0.12451189  0.94836465  0.64051552     0.39500
O767        O  0.10265651  0.93473466  0.63822246    -1.08700
O768        O  0.04908897  0.92289442  0.60658905    -0.65400
Ni769      Ni  0.09250960  0.93921429  0.60081624     1.26300
O770        O  0.13807169  0.90892491  0.62828222    -0.65600
O771        O  0.09954060  0.97993045  0.60566986    -0.77900
C772        C  0.10546375  0.94500100  0.54540965     0.85600
O773        O  0.08545004  0.94327227  0.56234134    -0.65100
Ni774      Ni  0.08363646  0.94356392  0.66771593     1.27400
Ni775      Ni  0.09491912  0.89349654  0.63486464     1.26100
H776        H  0.06282816  0.88460891  0.59552613     0.40100
O777        O  0.06446916  0.66830690  0.54991319    -0.79900
O778        O  0.10507263  0.69514476  0.67287684    -0.64500
O779        O  0.09570608  0.66554366  0.59823330    -1.11200
C780        C  0.50405941  0.58235660  0.63150106     1.07000
O781        O  0.09403355  0.64914641  0.68841946    -0.77800
O782        O  0.08032132  0.60464678  0.65309040    -0.65300
Ni783      Ni  0.10465051  0.69226723  0.56700971     1.34900
C784        C  0.08116411  0.59687423  0.62836745     0.85800
O785        O  0.14173751  0.71548845  0.62800135    -0.78300
O786        O  0.14561540  0.71847590  0.58128451    -0.88600
C787        C  0.10359830  0.67745799  0.69271520     0.85300
O788        O  0.09165292  0.71921628  0.58179577    -0.66800
O789        O  0.01919478  0.58755538  0.65429049    -0.86100
C790        C  0.08411039  0.72311608  0.60590175     0.86200
C791        C  0.15674842  0.72746828  0.60567454     1.07700
H792        H  0.04690429  0.65497633  0.64423575     0.39500
O793        O  0.06104226  0.64756656  0.64062032    -1.08700
O794        O  0.06988082  0.60442687  0.60797415    -0.65400
Ni795      Ni  0.05454868  0.63276224  0.60331893     1.26300
O796        O  0.08425658  0.70790060  0.62723163    -0.65600
O797        O  0.01391212  0.60000877  0.61028138    -0.77900
C798        C  0.04729751  0.63924474  0.54732998     0.85600
O799        O  0.04835486  0.62087537  0.56512107    -0.65100
Ni800      Ni  0.05687044  0.61991726  0.66991948     1.27400
Ni801      Ni  0.10131231  0.68166323  0.63497417     1.26100
H802        H  0.10910800  0.65689411  0.59662613     0.40100
O803        O  0.44175630  0.60968594  0.45330768    -0.79900
O804        O  0.39800529  0.59476232  0.32903144    -0.64500
O805        O  0.41131769  0.57702580  0.40413648    -1.11200
C806        C  0.00463135  0.59018926  0.37328643     1.07000
O807        O  0.41981216  0.57015250  0.30979135    -0.77800
O808        O  0.42715648  0.53584813  0.34838650    -0.65300
Ni809      Ni  0.40222138  0.59470482  0.43492949     1.34900
C810        C  0.42736809  0.52636946  0.37290094     0.85800
O811        O  0.36206917  0.57458333  0.37385876    -0.78300
O812        O  0.36169790  0.58113723  0.42002591    -0.88600
C813        C  0.40330803  0.58280292  0.30819109     0.85300
O814        O  0.41655093  0.63486993  0.41962952    -0.66800
O815        O  0.48938806  0.57848176  0.35106422    -0.86100
C816        C  0.41956248  0.64528347  0.39495253     0.86200
C817        C  0.34842187  0.57414597  0.39622990     1.07700
H818        H  0.45860452  0.61899522  0.35801724     0.39500
O819        O  0.44608321  0.59709549  0.36147894    -1.08700
O820        O  0.44010128  0.54478559  0.39313753    -0.65400
Ni821      Ni  0.45305208  0.58798989  0.39896554     1.26300
O822        O  0.41603357  0.62898742  0.37359547    -0.65600
O823        O  0.49473526  0.59945351  0.39289696    -0.77900
C824        C  0.45928682  0.59804824  0.45551536     0.85600
O825        O  0.45932690  0.58044503  0.43689114    -0.65100
Ni826      Ni  0.45352191  0.57537291  0.33276887     1.27400
Ni827      Ni  0.40404830  0.58634094  0.36700327     1.26100
H828        H  0.39908225  0.55494772  0.40663749     0.40100
O829        O  0.34011294  0.92477847  0.81583163    -0.79900
O830        O  0.36393603  0.90942650  0.93962953    -0.64500
O831        O  0.33878974  0.89256336  0.86367134    -1.11200
C832        C  0.25854507  0.90978531  0.89395837     1.07000
O833        O  0.31667747  0.87647607  0.95322518    -0.77800
O834        O  0.26704165  0.85161706  0.91926922    -0.65300
Ni835      Ni  0.36667073  0.91252236  0.83410545     1.34900
C836        C  0.26309656  0.84058745  0.89493827     0.85800
O837        O  0.38686133  0.89529882  0.89629984    -0.78300
O838        O  0.39570877  0.90218622  0.85021724    -0.88600
C839        C  0.34570068  0.88921984  0.95669408     0.85300
O840        O  0.38805010  0.95252479  0.84955810    -0.66800
O841        O  0.26574755  0.90558694  0.91862156    -0.86100
C842        C  0.39232068  0.96325037  0.87394876     0.86200
C843        C  0.40221938  0.89697253  0.87475247     1.07700
H844        H  0.32767016  0.93202566  0.90610197     0.39500
O845        O  0.31959730  0.91008097  0.90429481    -1.08700
O846        O  0.27760762  0.85658826  0.87382394    -0.65400
Ni847      Ni  0.30490894  0.89980515  0.86688401     1.26300
O848        O  0.38043660  0.94632700  0.89536317    -0.65600
O849        O  0.27156017  0.90775364  0.87199292    -0.77900
C850        C  0.31221765  0.90683645  0.80939790     0.85600
O851        O  0.29312665  0.89068367  0.82817003    -0.65100
Ni852      Ni  0.29221887  0.89168824  0.93456531     1.27400
Ni853      Ni  0.35316248  0.90255563  0.90109588     1.26100
H854        H  0.33095929  0.87073672  0.86143203     0.40100
O855        O  0.42850431  0.83409413  0.18662872    -0.79900
O856        O  0.41052865  0.85938513  0.06286357    -0.64500
O857        O  0.39595909  0.83395732  0.13908533    -1.11200
C858        C  0.41455581  0.75494587  0.10670706     1.07000
O859        O  0.37824342  0.81201083  0.04910554    -0.77800
O860        O  0.35540592  0.76124936  0.08257101    -0.65300
Ni861      Ni  0.41800389  0.86207212  0.16816344     1.34900
C862        C  0.34416293  0.75668078  0.10685105     0.85800
O863        O  0.39786873  0.88251396  0.10713576    -0.78300
O864        O  0.40954904  0.89289978  0.15247968    -0.88600
C865        C  0.39084619  0.84113432  0.04546164     0.85300
O866        O  0.45764800  0.88087657  0.15170858    -0.66800
O867        O  0.41016500  0.76259260  0.08226290    -0.86100
C868        C  0.46705692  0.88596534  0.12680855     0.86200
C869        C  0.40219851  0.89893369  0.12862585     1.07700
H870        H  0.43439304  0.82334647  0.09561240     0.39500
O871        O  0.41250126  0.81507314  0.09754691    -1.08700
O872        O  0.35948224  0.77191415  0.12801520    -0.65400
Ni873      Ni  0.40275695  0.79973145  0.13482024     1.26300
O874        O  0.44887165  0.87599311  0.10596227    -0.65600
O875        O  0.41109258  0.76662300  0.12894205    -0.77900
C876        C  0.41087758  0.80576747  0.19230166     0.85600
O877        O  0.39419002  0.78727801  0.17341306    -0.65100
Ni878      Ni  0.39475519  0.78815644  0.06702105     1.27400
Ni879      Ni  0.40491231  0.84860072  0.10149755     1.26100
H880        H  0.37434378  0.82630418  0.14220555     0.40100
O881        O  0.15631104  0.56039631  0.19278294    -0.79900
O882        O  0.12991912  0.53252090  0.06353865    -0.64500
O883        O  0.15745282  0.53949900  0.13898108    -1.11200
C884        C  0.23138839  0.64100315  0.10785265     1.07000
O885        O  0.17730649  0.55082247  0.04847561    -0.77800
O886        O  0.22744944  0.57760642  0.08147131    -0.65300
Ni887      Ni  0.12841557  0.52831932  0.16844267     1.34900
C888        C  0.23345813  0.57123556  0.10555540     0.85800
O889        O  0.11088889  0.99352552  0.10540636    -0.78300
O890        O  0.09726437  0.99367981  0.14948236    -0.88600
C891        C  0.14843608  0.53371081  0.04518098     0.85300
O892        O  0.11331219  0.55438273  0.15543075    -0.66800
O893        O  0.22424247  0.63012350  0.08326175    -0.86100
C894        C  0.10398797  0.55663101  0.13129585     0.86200
C895        C  0.09267055  0.98113654  0.12574025     1.07700
H896        H  0.16236759  0.58987755  0.09704174     0.39500
O897        O  0.17246003  0.57768741  0.09836941    -1.08700
O898        O  0.21882448  0.57068510  0.12718705    -0.65400
Ni899      Ni  0.18845567  0.58235828  0.13523839     1.26300
O900        O  0.11144989  0.54754310  0.10950804    -0.65600
O901        O  0.21898017  0.62506689  0.12981489    -0.77900
C902        C  0.18520789  0.57797370  0.19420180     0.85600
O903        O  0.20247059  0.58589941  0.17303814    -0.65100
Ni904      Ni  0.19951780  0.58992752  0.06739459     1.27400
Ni905      Ni  0.14194895  0.53536958  0.10162730     1.26100
H906        H  0.16716738  0.52701375  0.14095462     0.40100
O907        O  0.06687750  0.91068688  0.80971941    -0.79900
O908        O  0.08095263  0.94771932  0.93637977    -0.64500
O909        O  0.09556264  0.93816941  0.86029029    -1.11200
C910        C  0.07411226  0.83852984  0.89260484     1.07000
O911        O  0.11080672  0.92926076  0.95049749    -0.77800
O912        O  0.13229565  0.90110577  0.91782397    -0.65300
Ni913      Ni  0.07384594  0.94580542  0.83135220     1.34900
C914        C  0.14437829  0.90950524  0.89396452     0.85800
O915        O  0.09656285  0.98515044  0.89260055    -0.78300
O916        O  0.07907964  0.98251014  0.84900090    -0.88600
C917        C  0.09998197  0.94728643  0.95373272     0.85300
O918        O  0.03416738  0.92138108  0.84721758    -0.66800
O919        O  0.07652906  0.84915468  0.91712154    -0.86100
C920        C  0.02511539  0.91961093  0.87207329     0.86200
C921        C  0.08900448  0.99638138  0.87209715     1.07700
H922        H  0.05468107  0.88864970  0.90315584     0.39500
O923        O  0.07673791  0.90130994  0.90172639    -1.08700
O924        O  0.12990872  0.91102460  0.87264333    -0.65400
Ni925      Ni  0.08715933  0.89653710  0.86484480     1.26300
O926        O  0.04365032  0.92981867  0.89265221    -0.65600
O927        O  0.07815967  0.85466985  0.87058686    -0.77900
C928        C  0.08213711  0.89676272  0.80694923     0.85600
O929        O  0.09678657  0.89340237  0.82707734    -0.65100
Ni930      Ni  0.09286962  0.88962242  0.93249975     1.27400
Ni931      Ni  0.08687679  0.94332837  0.89788867     1.26100
H932        H  0.11728511  0.95161528  0.85708949     0.40100
O933        O  0.07382575  0.64852167  0.80885777    -0.79900
O934        O  0.04202881  0.62407584  0.93665062    -0.64500
O935        O  0.05009115  0.65133666  0.86092771    -1.11200
C936        C  0.15060949  0.72614469  0.89145263     1.07000
O937        O  0.06144857  0.67155401  0.95201063    -0.77800
O938        O  0.08505262  0.72039217  0.91735925    -0.65300
Ni939      Ni  0.03935403  0.62218874  0.83170777     1.34900
C940        C  0.07860531  0.72603873  0.89313716     0.85800
O941        O  0.00311521  0.60554308  0.89445871    -0.78300
O942        O  0.00317746  0.59179941  0.85040454    -0.88600
C943        C  0.04407463  0.64264243  0.95528916     0.85300
O944        O  0.06250291  0.60462379  0.84608971    -0.66800
O945        O  0.13923617  0.71994755  0.91583826    -0.86100
C946        C  0.06535347  0.59671192  0.87060131     0.86200
C947        C  0.49065402  0.58741284  0.87413150     1.07700
H948        H  0.09977783  0.65664894  0.90351292     0.39500
O949        O  0.08766460  0.66677700  0.90178514    -1.08700
O950        O  0.08042118  0.71265371  0.87152802    -0.65400
Ni951      Ni  0.09265245  0.68236594  0.86458134     1.26300
O952        O  0.05728702  0.60558276  0.89200176    -0.65600
O953        O  0.13518523  0.71296695  0.86959712    -0.77900
C954        C  0.09171950  0.67737921  0.80672569     0.85600
O955        O  0.09668678  0.69560541  0.82664663    -0.65100
Ni956      Ni  0.09967335  0.69447797  0.93216447     1.27400
Ni957      Ni  0.04538827  0.63625861  0.89855402     1.26100
H958        H  0.03765627  0.66104831  0.85852234     0.40100
O959        O  0.42047890  0.56801699  0.19354436    -0.79900
O960        O  0.45964925  0.57888903  0.06667396    -0.64500
O961        O  0.44832401  0.59402892  0.14229938    -1.11200
C962        C  0.35150230  0.57752222  0.10676189     1.07000
O963        O  0.44348093  0.61035403  0.05140503    -0.77800
O964        O  0.41679906  0.63406161  0.08324106    -0.65300
Ni965      Ni  0.45303351  0.57010222  0.17117750     1.34900
C966        C  0.42435082  0.64594075  0.10721730     0.85800
O967        O  0.49508308  0.59279091  0.11162101    -0.78300
O968        O  0.48730463  0.56996020  0.15335522    -0.88600
C969        C  0.46044875  0.59823088  0.04886596     0.85300
O970        O  0.42442441  0.53186901  0.15506653    -0.66800
O971        O  0.36294657  0.58019288  0.08256916    -0.86100
C972        C  0.42499031  0.52259162  0.13078278     0.86200
C973        C  0.00331485  0.58140939  0.13147793     1.07700
H974        H  0.39964483  0.55492008  0.09806013     0.39500
O975        O  0.41303158  0.57691562  0.09971733    -1.08700
O976        O  0.42423051  0.63086908  0.12877354    -0.65400
Ni977      Ni  0.40755133  0.58755576  0.13630321     1.26300
O978        O  0.43856973  0.54123160  0.11065249    -0.65600
O979        O  0.36661806  0.58052196  0.12920249    -0.77900
C980        C  0.40621578  0.58307389  0.19461980     0.85600
O981        O  0.40325038  0.59711182  0.17372607    -0.65100
Ni982      Ni  0.40361347  0.59437924  0.06841817     1.27400
Ni983      Ni  0.45419469  0.58506210  0.10494891     1.26100
H984        H  0.46245246  0.61554077  0.14593612     0.40100
C985        C  0.49027429  0.58913373  0.01165965     0.24600
C986        C  0.48299069  0.60914632  0.02581005    -0.23500
C987        C  0.99694637  0.64023030  0.01730514     0.19500
C988        C  0.01747478  0.65110909  0.99513859     0.24600
C989        C  0.02412087  0.63103040  0.98026547    -0.23400
C990        C  0.51030057  0.59985511  0.98880650     0.19500
F991        F  0.51588125  0.57964979  0.97492900    -0.13400
F992        F  0.47699203  0.55893477  0.01913744    -0.15700
F993        F  0.02985478  0.68124413  0.98761790    -0.15700
F994        F  0.99072921  0.66037140  0.03051096    -0.13400
C995        C  0.05924926  0.78694841  0.91384107     0.24600
C996        C  0.06817549  0.80631123  0.89015155    -0.23500
C997        C  0.07501299  0.79576324  0.86554933     0.19500
C998        C  0.07539209  0.76782447  0.86553758     0.24600
C999        C  0.07018509  0.75061189  0.89037416    -0.23400
C1000       C  0.06046737  0.75969670  0.91400109     0.19500
F1001       F  0.05334045  0.74284877  0.93793226    -0.13400
F1002       F  0.05088401  0.79509039  0.93765122    -0.15700
F1003       F  0.08292847  0.75885528  0.84172032    -0.15700
F1004       F  0.08360795  0.81341398  0.84206334    -0.13400
C1005       C  0.07831586  0.53246942  0.89809333     0.24600
C1006       C  0.09067179  0.52644839  0.87438322    -0.23500
C1007       C  0.09851009  0.54642342  0.85130013     0.19500
C1008       C  0.09271254  0.57093229  0.85126963     0.24600
C1009       C  0.07738557  0.57511383  0.87373658    -0.23400
C1010       C  0.07097322  0.55613561  0.89754191     0.19500
F1011       F  0.05546557  0.55877744  0.91936849    -0.13400
F1012       F  0.06626549  0.01105130  0.92019903    -0.15700
F1013       F  0.10080546  0.58967253  0.82848553    -0.15700
F1014       F  0.11054920  0.54140558  0.82809705    -0.13400
C1015       C  0.09348883  0.97958558  0.99003494     0.24600
C1016       C  0.11199838  0.96972334  0.97686740    -0.23500
C1017       C  0.14275494  0.98196550  0.98565547     0.19500
C1018       C  0.15505361  0.50309247  0.00757431     0.24600
C1019       C  0.13659586  0.51315406  0.02067671    -0.23400
C1020       C  0.10532348  0.00072285  0.01196188     0.19500
F1021       F  0.08814750  0.51200091  0.02247447    -0.13400
F1022       F  0.06368222  0.96814208  0.98221552    -0.15700
F1023       F  0.18442027  0.51309819  0.01614857    -0.15700
F1024       F  0.16155398  0.97345830  0.97316512    -0.13400
C1025       C  0.07559504  0.58072000  0.15291557     0.24600
C1026       C  0.08196508  0.56851216  0.12917774    -0.23500
C1027       C  0.06448428  0.56465617  0.10476072     0.19500
C1028       C  0.03954133  0.57009793  0.10499770     0.24600
C1029       C  0.03209688  0.58016054  0.12939775    -0.23400
C1030       C  0.05079467  0.58607464  0.15306595     0.19500
F1031       F  0.04452460  0.59634713  0.17678091    -0.13400
F1032       F  0.09278390  0.58674304  0.17649120    -0.15700
F1033       F  0.02132047  0.56329137  0.08204350    -0.15700
F1034       F  0.07049773  0.55426058  0.08099939    -0.13400
C1035       C  0.27026073  0.55677359  0.08541669     0.24600
C1036       C  0.26036810  0.56657305  0.10840914    -0.23500
C1037       C  0.27922641  0.57670705  0.13231114     0.19500
C1038       C  0.30836512  0.57912900  0.13237141     0.24600
C1039       C  0.31921089  0.57137733  0.10848947    -0.23400
C1040       C  0.29940712  0.55958622  0.08525851     0.19500
F1041       F  0.30853597  0.55165733  0.06178629    -0.13400
F1042       F  0.25204940  0.54538187  0.06251815    -0.15700
F1043       F  0.32666990  0.59117023  0.15511546    -0.15700
F1044       F  0.27051860  0.58652006  0.15489675    -0.13400
C1045       C  0.01244306  0.92675269  0.10019299     0.24600
C1046       C  0.50076045  0.90556370  0.12254347    -0.23500
C1047       C  0.02144608  0.90619406  0.14303241     0.19500
C1048       C  0.05228403  0.92949082  0.14285999     0.24600
C1049       C  0.06335940  0.95207828  0.12172835    -0.23400
C1050       C  0.04356651  0.94966695  0.09970449     0.19500
F1051       F  0.05350700  0.97153689  0.07932903    -0.13400
F1052       F  0.49326283  0.92724405  0.08029123    -0.15700
F1053       F  0.07095545  0.93104108  0.16425216    -0.15700
F1054       F  0.01146847  0.88512523  0.16411590    -0.13400
C1055       C  0.30443477  0.71080925  0.13355381     0.24600
C1056       C  0.31226048  0.73081476  0.11038430    -0.23500
C1057       C  0.29098116  0.72286553  0.08836669     0.19500
C1058       C  0.26379080  0.69440597  0.08829791     0.24600
C1059       C  0.25677962  0.67342163  0.11061336    -0.23400
C1060       C  0.27677229  0.68255654  0.13383063     0.19500
F1061       F  0.27091588  0.66312019  0.15583475    -0.13400
F1062       F  0.32474512  0.71723979  0.15483499    -0.15700
F1063       F  0.24490072  0.68691522  0.06575814    -0.15700
F1064       F  0.29714509  0.74218754  0.06622086    -0.13400
C1065       C  0.41667357  0.94825139  0.10353958     0.24600
C1066       C  0.40101774  0.92786599  0.12561292    -0.23500
C1067       C  0.38851794  0.93751636  0.14668316     0.19500
C1068       C  0.39342811  0.96768104  0.14664725     0.24600
C1069       C  0.41215268  0.98919319  0.12618421    -0.23400
C1070       C  0.42241644  0.97865021  0.10389921     0.19500
F1071       F  0.43704569  0.49684830  0.08264532    -0.13400
F1072       F  0.42931320  0.93979319  0.08303842    -0.15700
F1073       F  0.38111659  0.97619047  0.16744890    -0.15700
F1074       F  0.37264222  0.91813479  0.16796211    -0.13400
C1075       C  0.42335048  0.68799030  0.13447597     0.24600
C1076       C  0.43074516  0.67808209  0.10990901    -0.23500
C1077       C  0.43823410  0.69688780  0.08600206     0.19500
C1078       C  0.43401200  0.72241324  0.08533055     0.24600
C1079       C  0.42345737  0.73067189  0.10899712    -0.23400
C1080       C  0.41993307  0.71420805  0.13408485     0.19500
F1081       F  0.41120629  0.72209812  0.15783560    -0.13400
F1082       F  0.41702832  0.67106404  0.15831776    -0.15700
F1083       F  0.43916767  0.73825299  0.06096778    -0.15700
F1084       F  0.44803378  0.68955520  0.06257303    -0.13400
C1085       C  0.20307040  0.75858894  0.91194034     0.24600
C1086       C  0.18296923  0.75134605  0.88897722    -0.23500
C1087       C  0.19266627  0.77129694  0.86570205     0.19500
C1088       C  0.22026658  0.79948903  0.86671943     0.24600
C1089       C  0.23875006  0.80807195  0.89091125    -0.23400
C1090       C  0.23073937  0.78654036  0.91281179     0.19500
F1091       F  0.24906232  0.79309689  0.93567064    -0.13400
F1092       F  0.19516145  0.73930288  0.93431633    -0.15700
F1093       F  0.22736175  0.81953981  0.84502779    -0.15700
F1094       F  0.17418269  0.76501936  0.84299361    -0.13400
C1095       C  0.41646539  0.51677522  0.85563238     0.24600
C1096       C  0.41308010  0.99699079  0.87685893    -0.23500
C1097       C  0.43105472  0.00966773  0.90101080     0.19500
C1098       C  0.45703024  0.53912769  0.90095870     0.24600
C1099       C  0.46127854  0.55852662  0.87792910    -0.23400
C1100       C  0.44023439  0.54729287  0.85570881     0.19500
F1101       F  0.44387096  0.56542112  0.83313184    -0.13400
F1102       F  0.39735665  0.50662247  0.83319022    -0.15700
F1103       F  0.97766623  0.54906600  0.92227426    -0.15700
F1104       F  0.42739868  0.99163362  0.92364680    -0.13400
C1105       C  0.22559679  0.93005389  0.91256857     0.24600
C1106       C  0.23250728  0.91572699  0.89098231    -0.23500
C1107       C  0.21213917  0.90376608  0.86820142     0.19500
C1108       C  0.18424403  0.90383477  0.86817403     0.24600
C1109       C  0.17629219  0.91589472  0.89088358    -0.23400
C1110       C  0.19771247  0.93005689  0.91254193     0.19500
F1111       F  0.19117999  0.94302029  0.93418222    -0.13400
F1112       F  0.24539536  0.94315510  0.93422443    -0.15700
F1113       F  0.16388249  0.88962018  0.84712186    -0.15700
F1114       F  0.21792725  0.88962042  0.84706573    -0.13400
C1115       C  0.43985528  0.88242405  0.85718706     0.24600
C1116       C  0.43056633  0.89517080  0.87824755    -0.23500
C1117       C  0.45098845  0.91078867  0.90026238     0.19500
C1118       C  0.48111775  0.91595537  0.89983354     0.24600
C1119       C  0.99166846  0.90681372  0.87672040    -0.23400
C1120       C  0.47019001  0.88842143  0.85623736     0.19500
F1121       F  0.97879498  0.87725013  0.83458858    -0.13400
F1122       F  0.41989286  0.86541785  0.83672420    -0.15700
F1123       F  0.50048406  0.93205227  0.92096478    -0.15700
F1124       F  0.44283816  0.92376075  0.92075749    -0.13400
C1125       C  0.34310745  0.84580448  0.98512470     0.24600
C1126       C  0.35793945  0.87760196  0.97924311    -0.23500
C1127       C  0.38458456  0.89740363  0.99441480     0.19500
C1128       C  0.39539862  0.88571805  0.01583165     0.24600
C1129       C  0.38055932  0.85372721  0.02175562    -0.23400
C1130       C  0.35468535  0.83392197  0.00547200     0.19500
F1131       F  0.34018298  0.80286846  0.00920814    -0.13400
F1132       F  0.31758650  0.82591441  0.97060203    -0.15700
F1133       F  0.42042456  0.90584779  0.03072240    -0.15700
F1134       F  0.39968032  0.92819983  0.98908138    -0.13400
C1135       C  0.37552802  0.55592693  0.26550947     0.24600
C1136       C  0.39148664  0.58372585  0.28022735    -0.23500
C1137       C  0.40503062  0.61179801  0.26538013     0.19500
C1138       C  0.40587022  0.61189430  0.23620634     0.24600
C1139       C  0.39358678  0.58391429  0.22183792    -0.23400
C1140       C  0.37656788  0.55604225  0.23648861     0.19500
F1141       F  0.36425232  0.52874901  0.22286835    -0.13400
F1142       F  0.36252744  0.52847245  0.27932585    -0.15700
F1143       F  0.42264817  0.63903875  0.22240230    -0.15700
F1144       F  0.42163458  0.63880466  0.27907967    -0.13400
C1145       C  0.10230266  0.70728064  0.73386209     0.24600
C1146       C  0.11235525  0.68837111  0.72163620    -0.23500
C1147       C  0.12383072  0.67338238  0.73896724     0.19500
C1148       C  0.12083971  0.67335331  0.76773923     0.24600
C1149       C  0.10674085  0.68863224  0.77969238    -0.23400
C1150       C  0.09962821  0.70747589  0.76292133     0.19500
F1151       F  0.08623095  0.72259939  0.77429241    -0.13400
F1152       F  0.09124079  0.72216286  0.71778006    -0.15700
F1153       F  0.12836412  0.65538649  0.78371855    -0.15700
F1154       F  0.13473270  0.65580598  0.72791526    -0.13400
C1155       C  0.01345593  0.64648002  0.51308852     0.24600
C1156       C  0.02429969  0.62742026  0.52420432    -0.23500
C1157       C  0.51287471  0.59771949  0.51295508     0.19500
C1158       C  0.49219837  0.58807259  0.49023188     0.24600
C1159       C  0.48154883  0.60745157  0.47919345    -0.23400
C1160       C  0.99261050  0.63673634  0.49093932     0.19500
F1161       F  0.98390419  0.65662889  0.48046106    -0.13400
F1162       F  0.02242288  0.67458544  0.52414944    -0.15700
F1163       F  0.48237518  0.55972657  0.47931211    -0.15700
F1164       F  0.52185542  0.57813414  0.52371470    -0.13400
C1165       C  0.05535936  0.87040530  0.73461475     0.24600
C1166       C  0.08363284  0.88154669  0.72084127    -0.23500
C1167       C  0.11028499  0.88965597  0.73672401     0.19500
C1168       C  0.10931070  0.89073236  0.76591325     0.24600
C1169       C  0.08182032  0.88438230  0.77914110    -0.23400
C1170       C  0.05452777  0.87207993  0.76345605     0.19500
F1171       F  0.02739464  0.86444770  0.77586314    -0.13400
F1172       F  0.02888838  0.86104865  0.71992749    -0.15700
F1173       F  0.13580257  0.90143951  0.78078672    -0.15700
F1174       F  0.13779910  0.90025530  0.72399041    -0.13400
C1175       C  0.06174227  0.78340277  0.58937667     0.24600
C1176       C  0.07758737  0.80486851  0.61053177    -0.23500
C1177       C  0.09078266  0.79660651  0.63263372     0.19500
C1178       C  0.09048690  0.76850408  0.63224747     0.24600
C1179       C  0.07738625  0.74843318  0.60958792    -0.23400
C1180       C  0.06199725  0.75557292  0.58869257     0.19500
F1181       F  0.04804582  0.73605376  0.56716202    -0.13400
F1182       F  0.04684291  0.78984898  0.56887195    -0.15700
F1183       F  0.10553697  0.76228479  0.65276807    -0.15700
F1184       F  0.10627042  0.81675147  0.65341329    -0.13400
C1185       C  0.08918200  0.53097903  0.60130819     0.24600
C1186       C  0.10334099  0.52542143  0.62443045    -0.23500
C1187       C  0.11529087  0.54692647  0.64595354     0.19500
C1188       C  0.11087053  0.57223311  0.64569668     0.24600
C1189       C  0.09379648  0.57616835  0.62410148    -0.23400
C1190       C  0.08458626  0.55635096  0.60106164     0.19500
F1191       F  0.06858331  0.55967395  0.57956668    -0.13400
F1192       F  0.07683806  0.51019386  0.58038923    -0.15700
F1193       F  0.12144135  0.59161119  0.66773796    -0.15700
F1194       F  0.12949700  0.54234456  0.66825318    -0.13400
C1195       C  0.20733682  0.57298524  0.26762245     0.24600
C1196       C  0.19622296  0.59051777  0.28073395    -0.23500
C1197       C  0.18904947  0.60966684  0.26440431     0.19500
C1198       C  0.19002927  0.60904654  0.23537574     0.24600
C1199       C  0.19777013  0.58895281  0.22219366    -0.23400
C1200       C  0.20793063  0.57209070  0.23843374     0.19500
F1201       F  0.21485629  0.55201128  0.22608803    -0.13400
F1202       F  0.21396414  0.55390360  0.28284276    -0.15700
F1203       F  0.18018356  0.62556323  0.22008012    -0.15700
F1204       F  0.17850742  0.62699094  0.27656363    -0.13400
C1205       C  0.09792910  0.97991386  0.51158097     0.24600
C1206       C  0.11643036  0.96827969  0.52247162    -0.23500
C1207       C  0.14624641  0.97979237  0.51171026     0.19500
C1208       C  0.15706501  0.50167649  0.49032856     0.24600
C1209       C  0.13855692  0.51356898  0.48001639    -0.23400
C1210       C  0.10888016  0.00221665  0.49022334     0.19500
F1211       F  0.09091522  0.01382220  0.48102577    -0.13400
F1212       F  0.06910269  0.96951899  0.52138756    -0.15700
F1213       F  0.18512158  0.51072962  0.47921514    -0.15700
F1214       F  0.16619773  0.47041432  0.52203816    -0.13400
C1215       C  0.05563766  0.60205432  0.35530322     0.24600
C1216       C  0.03402387  0.59073150  0.37679436    -0.23500
C1217       C  0.03842120  0.57548595  0.39962823     0.19500
C1218       C  0.06250468  0.56888279  0.39959427     0.24600
C1219       C  0.08328464  0.57864891  0.37719841    -0.23400
C1220       C  0.08050249  0.59677007  0.35583130     0.19500
F1221       F  0.10098230  0.60806497  0.33462708    -0.13400
F1222       F  0.05190820  0.61712387  0.33318916    -0.15700
F1223       F  0.06364800  0.55052414  0.42011406    -0.15700
F1224       F  0.51768652  0.56436305  0.42063093    -0.13400
C1225       C  0.26899822  0.55512234  0.41932712     0.24600
C1226       C  0.25792106  0.56346099  0.39564454    -0.23500
C1227       C  0.27475945  0.57055364  0.37075620     0.19500
C1228       C  0.30345495  0.57210823  0.37030963     0.24600
C1229       C  0.31576923  0.56646609  0.39476302    -0.23400
C1230       C  0.29749921  0.55644688  0.41884828     0.19500
F1231       F  0.30770277  0.54896052  0.44237693    -0.13400
F1232       F  0.25278011  0.54684928  0.44338488    -0.15700
F1233       F  0.32008642  0.58147387  0.34649159    -0.15700
F1234       F  0.26481880  0.57870864  0.34745547    -0.13400
C1235       C  0.43885151  0.81424927  0.26535011     0.24600
C1236       C  0.41104428  0.79994228  0.28001854    -0.23500
C1237       C  0.38382656  0.77955463  0.26569355     0.19500
C1238       C  0.38385070  0.77773321  0.23641787     0.24600
C1239       C  0.41123016  0.79587725  0.22153830    -0.23400
C1240       C  0.43900772  0.81148488  0.23652833     0.19500
F1241       F  0.46624270  0.82640873  0.22290595    -0.13400
F1242       F  0.46576077  0.83274560  0.27874599    -0.15700
F1243       F  0.35686070  0.76068019  0.22264925    -0.15700
F1244       F  0.35685410  0.76391259  0.27961121    -0.13400
C1245       C  0.42569337  0.98109513  0.39837111     0.24600
C1246       C  0.41365684  0.99232156  0.37763627    -0.23500
C1247       C  0.39195312  0.97130920  0.35857535     0.19500
C1248       C  0.38545738  0.94063447  0.35810808     0.24600
C1249       C  0.39949942  0.93012235  0.37745296    -0.23400
C1250       C  0.41843781  0.95021428  0.39840839     0.19500
F1251       F  0.43262168  0.94084377  0.41720526    -0.13400
F1252       F  0.44676443  0.00051369  0.41702881    -0.15700
F1253       F  0.36646390  0.92157998  0.33805745    -0.15700
F1254       F  0.37884208  0.48114106  0.33892413    -0.13400
C1255       C  0.41204584  0.71297839  0.36808937     0.24600
C1256       C  0.42288752  0.73276056  0.39117251    -0.23500
C1257       C  0.43732415  0.72587925  0.41315172     0.19500
C1258       C  0.43877165  0.69865532  0.41311215     0.24600
C1259       C  0.42524431  0.67730936  0.39135344    -0.23400
C1260       C  0.41301331  0.68539875  0.36825059     0.19500
F1261       F  0.39974633  0.66559265  0.34677808    -0.13400
F1262       F  0.39828216  0.71904297  0.34630605    -0.15700
F1263       F  0.45248868  0.69267072  0.43496786    -0.15700
F1264       F  0.44927994  0.74511921  0.43518730    -0.13400
C1265       C  0.01838769  0.91585363  0.35350433     0.24600
C1266       C  0.49894464  0.91172563  0.37603376    -0.23500
C1267       C  0.01169551  0.93006631  0.39987912     0.19500
C1268       C  0.04253257  0.95381044  0.39998401     0.24600
C1269       C  0.06085048  0.95978667  0.37615577    -0.23400
C1270       C  0.04876019  0.93989098  0.35336978     0.19500
F1271       F  0.06605724  0.94444878  0.33037797    -0.13400
F1272       F  0.00766603  0.89720117  0.33098641    -0.15700
F1273       F  0.05361848  0.97256561  0.42242416    -0.15700
F1274       F  0.49394928  0.92652636  0.42229448    -0.13400
C1275       C  0.29210093  0.72580061  0.40884050     0.24600
C1276       C  0.31520676  0.73225701  0.38933402    -0.23500
C1277       C  0.31018598  0.71012556  0.36902040     0.19500
C1278       C  0.28340384  0.68122367  0.36955248     0.24600
C1279       C  0.26109223  0.67416364  0.39021311    -0.23400
C1280       C  0.26517374  0.69719225  0.40910225     0.19500
F1281       F  0.24351509  0.69166422  0.42851068    -0.13400
F1282       F  0.29623903  0.74680881  0.42849842    -0.15700
F1283       F  0.28057257  0.65936598  0.35134194    -0.15700
F1284       F  0.33240369  0.71530118  0.35031502    -0.13400
C1285       C  0.28817354  0.87715169  0.73620619     0.24600
C1286       C  0.30668646  0.90445161  0.72108973    -0.23500
C1287       C  0.32058621  0.93271421  0.73512781     0.19500
C1288       C  0.31893027  0.93352026  0.76400268     0.24600
C1289       C  0.30351730  0.90604708  0.77965019    -0.23400
C1290       C  0.28642977  0.87795418  0.76542847     0.19500
F1291       F  0.27106804  0.85103988  0.77986666    -0.13400
F1292       F  0.27494157  0.84950092  0.72318159    -0.15700
F1293       F  0.33501156  0.96112696  0.77693616    -0.15700
F1294       F  0.33841692  0.95947853  0.72107262    -0.13400
C1295       C  0.23769324  0.78965177  0.58716939     0.24600
C1296       C  0.24378333  0.81133068  0.60814109    -0.23500
C1297       C  0.22270928  0.80367067  0.62993777     0.19500
C1298       C  0.19535222  0.77536863  0.63013330     0.24600
C1299       C  0.18813121  0.75448309  0.60807794    -0.23400
C1300       C  0.20998081  0.76160515  0.58695264     0.19500
F1301       F  0.20420592  0.74180854  0.56566961    -0.13400
F1302       F  0.25825256  0.79605252  0.56644009    -0.15700
F1303       F  0.17487232  0.76960350  0.65079222    -0.15700
F1304       F  0.22727430  0.82469563  0.64975422    -0.13400
C1305       C  0.42983159  0.01355649  0.65331270     0.24600
C1306       C  0.42253667  0.99492540  0.62941700    -0.23500
C1307       C  0.43974682  0.50627818  0.60523128     0.19500
C1308       C  0.46520587  0.53610704  0.60521617     0.24600
C1309       C  0.47419773  0.55361422  0.62974127    -0.23400
C1310       C  0.45598393  0.54180090  0.65360430     0.19500
F1311       F  0.96357398  0.55847566  0.67741776    -0.13400
F1312       F  0.41352277  0.00250551  0.67718257    -0.15700
F1313       F  0.48242535  0.54683655  0.58181875    -0.15700
F1314       F  0.43310806  0.48926474  0.58174394    -0.13400
C1315       C  0.23432572  0.93254466  0.58683641     0.24600
C1316       C  0.24351592  0.92105395  0.60972960    -0.23500
C1317       C  0.22540472  0.91218017  0.63399039     0.19500
C1318       C  0.19693882  0.91106609  0.63401849     0.24600
C1319       C  0.18626430  0.91915553  0.60993903    -0.23400
C1320       C  0.20603539  0.93164805  0.58698486     0.19500
F1321       F  0.19729741  0.94160469  0.56403280    -0.13400
F1322       F  0.25202221  0.94338616  0.56371036    -0.15700
F1323       F  0.17871914  0.89937675  0.65673453    -0.15700
F1324       F  0.23390827  0.90214557  0.65701316    -0.13400
C1325       C  0.48685113  0.91270940  0.60113592     0.24600
C1326       C  0.99936196  0.90654074  0.62501965    -0.23500
C1327       C  0.48014482  0.89144412  0.64788661     0.19500
C1328       C  0.44973789  0.88497762  0.64773994     0.24600
C1329       C  0.43801926  0.89395970  0.62501427    -0.23400
C1330       C  0.45645747  0.90678096  0.60120620     0.19500
F1331       F  0.44621235  0.91637139  0.57906595    -0.13400
F1332       F  0.00479708  0.92711810  0.57873579    -0.15700
F1333       F  0.43223217  0.87146935  0.67058122    -0.15700
F1334       F  0.49120021  0.88432800  0.67108894    -0.13400
C1335       C  0.34418717  0.84934436  0.51174263     0.24600
C1336       C  0.36423766  0.87819375  0.52378937    -0.23500
C1337       C  0.39462903  0.89496923  0.51390949     0.19500
C1338       C  0.40438246  0.88358180  0.49198437     0.24600
C1339       C  0.38407912  0.85498916  0.47973289    -0.23400
C1340       C  0.35394427  0.83800509  0.49002859     0.19500
F1341       F  0.33335244  0.81070043  0.47843192    -0.13400
F1342       F  0.31497809  0.83167350  0.52109945    -0.15700
F1343       F  0.43379489  0.90041516  0.48294485    -0.15700
F1344       F  0.41478637  0.92267765  0.52506826    -0.13400
O1345       O  0.82443574  0.37722200  0.55105812    -0.79900
O1346       O  0.80068963  0.38909688  0.67406701    -0.64500
O1347       O  0.82944956  0.41074028  0.59947558    -1.11200
C1348       C  0.91033189  0.39485944  0.62888988     1.07000
O1349       O  0.84764987  0.41710203  0.69152082    -0.77800
O1350       O  0.89351235  0.44875632  0.65641442    -0.65300
Ni1351     Ni  0.80241270  0.39509533  0.56851421     1.34900
C1352       C  0.90041352  0.46004006  0.63207822     0.85800
O1353       O  0.78184286  0.40943483  0.63024595    -0.78300
O1354       O  0.77822980  0.41148940  0.58358254    -0.88600
C1355       C  0.81865610  0.40283170  0.69425284     0.85300
O1356       O  0.77436010  0.35544407  0.58311348    -0.66800
O1357       O  0.90461449  0.40102629  0.65297677    -0.86100
C1358       C  0.77016243  0.34294472  0.60697736     0.86200
C1359       C  0.77021590  0.41407276  0.60812987     1.07700
H1360       H  0.83745125  0.36761005  0.64243272     0.39500
O1361       O  0.84634378  0.38988166  0.64037360    -1.08700
O1362       O  0.89037050  0.44368020  0.61020020    -0.65400
Ni1363     Ni  0.86122752  0.40065579  0.60308801     1.26300
O1364       O  0.78550223  0.35697457  0.62841879    -0.65600
O1365       O  0.89343660  0.39105322  0.60770769    -0.77900
C1366       C  0.85325547  0.38894619  0.54754731     0.85600
O1367       O  0.87214746  0.40836882  0.56471721    -0.65100
Ni1368     Ni  0.87441690  0.40795576  0.67043737     1.27400
Ni1369     Ni  0.81391057  0.39943884  0.63622880     1.26100
H1370       H  0.83870443  0.43287946  0.59813034     0.40100
O1371       O  0.88159208  0.31457647  0.45246161    -0.79900
O1372       O  0.89567167  0.29204798  0.32766760    -0.64500
O1373       O  0.91405004  0.31849431  0.40332968    -1.11200
C1374       C  0.89977223  0.40106058  0.37299457     1.07000
O1375       O  0.92580733  0.33958865  0.31237453    -0.77800
O1376       O  0.95466798  0.38583333  0.34793362    -0.65300
Ni1377     Ni  0.89656030  0.29057623  0.43365131     1.34900
C1378       C  0.96527585  0.39045479  0.37257709     0.85800
O1379       O  0.91486889  0.27228660  0.37151557    -0.78300
O1380       O  0.91017958  0.26420411  0.41787207    -0.88600
C1381       C  0.91072331  0.31070290  0.30823814     0.85300
O1382       O  0.85661316  0.26553710  0.41828809    -0.66800
O1383       O  0.90528854  0.39522835  0.34865066    -0.86100
C1384       C  0.84609105  0.25988871  0.39362383     0.86200
C1385       C  0.91591520  0.25829075  0.39355924     1.07700
H1386       H  0.87312083  0.32795556  0.35940897     0.39500
O1387       O  0.89503720  0.33675272  0.36190844    -1.08700
O1388       O  0.94829785  0.37927100  0.39386343    -0.65400
Ni1389     Ni  0.90500419  0.35115862  0.39941639     1.26300
O1390       O  0.86185778  0.27419934  0.37235778    -0.65600
O1391       O  0.89674898  0.38436204  0.39425906    -0.77900
C1392       C  0.89387600  0.34360764  0.45568544     0.85600
O1393       O  0.91235147  0.36217421  0.43775464    -0.65100
Ni1394     Ni  0.91444670  0.36568644  0.33228872     1.27400
Ni1395     Ni  0.90444405  0.30407778  0.36595360     1.26100
H1396       H  0.93600115  0.32725441  0.40553821     0.40100
O1397       O  0.67868526  0.05215426  0.45192970    -0.79900
O1398       O  0.70375986  0.08694310  0.32923850    -0.64500
O1399       O  0.67447165  0.08180276  0.40326887    -1.11200
C1400       C  0.58967149  0.48899116  0.37415307     1.07000
O1401       O  0.65808268  0.07644330  0.31334157    -0.77800
O1402       O  0.61236486  0.06389243  0.34841479    -0.65300
Ni1403     Ni  0.70111411  0.09242868  0.43448563     1.34900
C1404       C  0.60448523  0.06543550  0.37302537     0.85800
O1405       O  0.72478018  0.12614289  0.37291098    -0.78300
O1406       O  0.72533018  0.13331085  0.41920191    -0.88600
C1407       C  0.68613385  0.08475068  0.30912744     0.85300
O1408       O  0.72988247  0.08142551  0.42056093    -0.66800
O1409       O  0.59554576  0.50253849  0.35041974    -0.86100
C1410       C  0.73280439  0.07085061  0.39762587     0.86200
C1411       C  0.73509115  0.14301300  0.39457031     1.07700
H1412       H  0.66282006  0.03044474  0.35970170     0.39500
O1413       O  0.65583628  0.04508801  0.36250134    -1.08700
O1414       O  0.61303747  0.05579961  0.39407208    -0.65400
Ni1415     Ni  0.64146915  0.04052867  0.39977068     1.26300
O1416       O  0.71604891  0.06766054  0.37643467    -0.65600
O1417       O  0.60687584  0.50013989  0.39555628    -0.77900
C1418       C  0.64978747  0.03547170  0.45550626     0.85600
O1419       O  0.63098627  0.03647111  0.43820587    -0.65100
Ni1420     Ni  0.62830182  0.03999743  0.33297574     1.27400
Ni1421     Ni  0.69056175  0.08536678  0.36693882     1.26100
H1422       H  0.66596567  0.09542492  0.40377651     0.40100
O1423       O  0.61923241  0.42902805  0.55017460    -0.79900
O1424       O  0.60460230  0.39101083  0.67501305    -0.64500
O1425       O  0.58593751  0.39912541  0.59890236    -1.11200
C1426       C  0.60102964  0.49521467  0.62831896     1.07000
O1427       O  0.57131241  0.40539561  0.68708403    -0.77800
O1428       O  0.54527253  0.42737233  0.65337096    -0.65300
Ni1429     Ni  0.60280881  0.38914728  0.56847531     1.34900
C1430       C  0.53438166  0.42036085  0.62901272     0.85800
O1431       O  0.58790359  0.35309888  0.63096704    -0.78300
O1432       O  0.58781562  0.34872671  0.58423763    -0.88600
C1433       C  0.58745598  0.39305059  0.69316143     0.85300
O1434       O  0.64234492  0.40225945  0.58399176    -0.66800
O1435       O  0.59623511  0.48393404  0.65294281    -0.86100
C1436       C  0.65440472  0.41013827  0.60797493     0.86200
C1437       C  0.58456816  0.33770559  0.60892863     1.07700
H1438       H  0.62611563  0.44927056  0.64210030     0.39500
O1439       O  0.60426304  0.43572693  0.63968442    -1.08700
O1440       O  0.55091838  0.42468561  0.60772729    -0.65400
Ni1441     Ni  0.59428350  0.44029485  0.60219606     1.26300
O1442       O  0.63941665  0.40959771  0.62941253    -0.65600
O1443       O  0.60212204  0.48119483  0.60689144    -0.77900
C1444       C  0.60686281  0.44579009  0.54664852     0.85600
O1445       O  0.58717504  0.44437004  0.56377454    -0.65100
Ni1446     Ni  0.58499467  0.44449816  0.66906278     1.27400
Ni1447     Ni  0.59631283  0.39444627  0.63624946     1.26100
H1448       H  0.56397128  0.38576917  0.59713439     0.40100
O1449       O  0.56592059  0.16945023  0.54908531    -0.79900
O1450       O  0.60567028  0.19585343  0.67250595    -0.64500
O1451       O  0.59641216  0.16638574  0.59786156    -1.11200
C1452       C  0.00321615  0.08445726  0.63151018     1.07000
O1453       O  0.59455356  0.14972351  0.68727340    -0.77800
O1454       O  0.57713347  0.10291107  0.65337866    -0.65300
Ni1455     Ni  0.60588650  0.19336665  0.56669112     1.34900
C1456       C  0.57910483  0.09603173  0.62856745     0.85800
O1457       O  0.64265141  0.21554629  0.62806432    -0.78300
O1458       O  0.64671949  0.21949766  0.58139366    -0.88600
C1459       C  0.60386484  0.17787544  0.69216118     0.85300
O1460       O  0.59277077  0.22035117  0.58131925    -0.66800
O1461       O  0.51750855  0.09013422  0.65477966    -0.86100
C1462       C  0.58565997  0.22448974  0.60554055     0.86200
C1463       C  0.65776277  0.22786950  0.60591272     1.07700
H1464       H  0.54759755  0.15668455  0.64330237     0.39500
O1465       O  0.56142379  0.14881177  0.64003223    -1.08700
O1466       O  0.56994109  0.10533640  0.60782597    -0.65400
Ni1467     Ni  0.55502559  0.13389907  0.60286994     1.26300
O1468       O  0.58588176  0.20930379  0.62683422    -0.65600
O1469       O  0.51414320  0.10129370  0.60982010    -0.77900
C1470       C  0.54843227  0.14037775  0.54674116     0.85600
O1471       O  0.54906481  0.12195723  0.56472990    -0.65100
Ni1472     Ni  0.55623814  0.12131726  0.66978628     1.27400
Ni1473     Ni  0.60200104  0.18236345  0.63465070     1.26100
H1474       H  0.60960832  0.15749455  0.59628539     0.40100
O1475       O  0.94264358  0.11064637  0.45267758    -0.79900
O1476       O  0.89858521  0.09511758  0.32881295    -0.64500
O1477       O  0.91180751  0.07737001  0.40391996    -1.11200
C1478       C  0.50438822  0.08911017  0.37281485     1.07000
O1479       O  0.91904595  0.06910274  0.30979489    -0.77800
O1480       O  0.92676506  0.03524252  0.34853502    -0.65300
Ni1481     Ni  0.90267578  0.09471175  0.43488766     1.34900
C1482       C  0.92703380  0.02599536  0.37312083     0.85800
O1483       O  0.86283203  0.07590074  0.37393520    -0.78300
O1484       O  0.86186075  0.08031308  0.42038682    -0.88600
C1485       C  0.90319717  0.08247419  0.30806740     0.85300
O1486       O  0.91576797  0.13456628  0.41955461    -0.66800
O1487       O  0.98903724  0.07747625  0.35062841    -0.86100
C1488       C  0.91979110  0.14543256  0.39499142     0.86200
C1489       C  0.84889959  0.07448456  0.39643359     1.07700
H1490       H  0.95907719  0.11854231  0.35742533     0.39500
O1491       O  0.94631638  0.09671514  0.36110210    -1.08700
O1492       O  0.93999558  0.04456535  0.39322566    -0.65400
Ni1493     Ni  0.95340869  0.08794129  0.39865670     1.26300
O1494       O  0.91742156  0.12963511  0.37354100    -0.65600
O1495       O  0.99486408  0.09880341  0.39240216    -0.77900
C1496       C  0.96010969  0.09896078  0.45513717     0.85600
O1497       O  0.95994058  0.08100678  0.43672884    -0.65100
Ni1498     Ni  0.95309405  0.07444711  0.33247876     1.27400
Ni1499     Ni  0.90456822  0.08676971  0.36684997     1.26100
H1500       H  0.89944692  0.05529071  0.40631104     0.40100
O1501       O  0.83998903  0.42472109  0.81573584    -0.79900
O1502       O  0.86353242  0.40872381  0.93960745    -0.64500
O1503       O  0.83869098  0.39261343  0.86363241    -1.11200
C1504       C  0.75934133  0.41131719  0.89404810     1.07000
O1505       O  0.81609993  0.37625974  0.95311152    -0.77800
O1506       O  0.76623243  0.35292243  0.91914513    -0.65300
Ni1507     Ni  0.86667726  0.41280709  0.83421397     1.34900
C1508       C  0.76270509  0.34156859  0.89498291     0.85800
O1509       O  0.88600728  0.39399543  0.89635483    -0.78300
O1510       O  0.89591607  0.40295390  0.85055451    -0.88600
C1511       C  0.84511031  0.38871312  0.95667494     0.85300
O1512       O  0.88753175  0.45275661  0.84971826    -0.66800
O1513       O  0.76698802  0.40789690  0.91878899    -0.86100
C1514       C  0.89246227  0.46298325  0.87430516     0.86200
C1515       C  0.90195983  0.39682980  0.87492304     1.07700
H1516       H  0.82842841  0.43255371  0.90598658     0.39500
O1517       O  0.81993721  0.41053427  0.90429778    -1.08700
O1518       O  0.77785128  0.35714430  0.87398546    -0.65400
Ni1519     Ni  0.80507808  0.40022130  0.86700299     1.26300
O1520       O  0.88102786  0.44571728  0.89560403    -0.65600
O1521       O  0.77180571  0.40831487  0.87213526    -0.77900
C1522       C  0.81197111  0.40686033  0.80968218     0.85600
O1523       O  0.79303873  0.39089595  0.82855848    -0.65100
Ni1524     Ni  0.79250110  0.39270365  0.93460197     1.27400
Ni1525     Ni  0.85289748  0.40211744  0.90110628     1.26100
H1526       H  0.83074045  0.37079635  0.86116682     0.40100
O1527       O  0.92960368  0.33538249  0.18666115    -0.79900
O1528       O  0.91039613  0.36012004  0.06322870    -0.64500
O1529       O  0.89608786  0.33424262  0.13936569    -1.11200
C1530       C  0.91601375  0.25618070  0.10725212     1.07000
O1531       O  0.87931660  0.31269389  0.04887595    -0.77800
O1532       O  0.85607369  0.26238148  0.08275267    -0.65300
Ni1533     Ni  0.91799504  0.36259106  0.16841037     1.34900
C1534       C  0.84517175  0.25710841  0.10719075     0.85800
O1535       O  0.89696013  0.38230105  0.10756199    -0.78300
O1536       O  0.90860168  0.39274226  0.15289626    -0.88600
C1537       C  0.89128262  0.34179362  0.04554333     0.85300
O1538       O  0.95752136  0.38207406  0.15176222    -0.66800
O1539       O  0.91065372  0.26313615  0.08287609    -0.86100
C1540       C  0.96675943  0.38688862  0.12682206     0.86200
C1541       C  0.90109151  0.39861776  0.12906844     1.07700
H1542       H  0.93507564  0.32457185  0.09563131     0.39500
O1543       O  0.91315295  0.31596083  0.09771291    -1.08700
O1544       O  0.86075692  0.27184297  0.12846672    -0.65400
Ni1545     Ni  0.90389839  0.30072189  0.13508537     1.26300
O1546       O  0.94850292  0.37673881  0.10608948    -0.65600
O1547       O  0.91335795  0.26842017  0.12943085    -0.77900
C1548       C  0.91243665  0.30702729  0.19239827     0.85600
O1549       O  0.89574605  0.28838293  0.17363874    -0.65100
Ni1550     Ni  0.89555383  0.28885844  0.06729342     1.27400
Ni1551     Ni  0.90473950  0.34894662  0.10177321     1.26100
H1552       H  0.87441323  0.32613849  0.14257074     0.40100
O1553       O  0.65664757  0.06250626  0.19170836    -0.79900
O1554       O  0.63004737  0.03319523  0.06338325    -0.64500
O1555       O  0.65753431  0.03977587  0.13869991    -1.11200
C1556       C  0.73232606  0.14105382  0.10766041     1.07000
O1557       O  0.67733138  0.05090006  0.04834321    -0.77800
O1558       O  0.72821612  0.07838185  0.08111735    -0.65300
Ni1559     Ni  0.62887122  0.02921674  0.16832496     1.34900
C1560       C  0.73385499  0.07126936  0.10506374     0.85800
O1561       O  0.61125946  0.49286969  0.10552515    -0.78300
O1562       O  0.59648747  0.49359601  0.14898222    -0.88600
C1563       C  0.64837365  0.03392218  0.04508712     0.85300
O1564       O  0.61270256  0.05422971  0.15495465    -0.66800
O1565       O  0.72446892  0.13056490  0.08297441    -0.86100
C1566       C  0.60398430  0.05698452  0.13071910     0.86200
C1567       C  0.59241913  0.48081111  0.12543857     1.07700
H1568       H  0.66317930  0.09050792  0.09716969     0.39500
O1569       O  0.67300702  0.07805920  0.09823694    -1.08700
O1570       O  0.71871189  0.06972777  0.12661964    -0.65400
Ni1571     Ni  0.68916323  0.08228486  0.13498025     1.26300
O1572       O  0.61200798  0.04848274  0.10897423    -0.65600
O1573       O  0.72042602  0.12476935  0.12958401    -0.77900
C1574       C  0.68569493  0.07850771  0.19359417     0.85600
O1575       O  0.70316672  0.08513230  0.17270098    -0.65100
Ni1576     Ni  0.69979782  0.09023390  0.06713777     1.27400
Ni1577     Ni  0.64207101  0.03585130  0.10140492     1.26100
H1578       H  0.66684495  0.02691908  0.14064456     0.40100
O1579       O  0.56604153  0.40902542  0.81136146    -0.79900
O1580       O  0.58104347  0.44774622  0.93666612    -0.64500
O1581       O  0.59566504  0.43794776  0.86095176    -1.11200
C1582       C  0.57358943  0.33820186  0.89364794     1.07000
O1583       O  0.61105347  0.42941986  0.95075055    -0.77800
O1584       O  0.63207440  0.40032577  0.91868231    -0.65300
Ni1585     Ni  0.57454248  0.44555706  0.83156781     1.34900
C1586       C  0.64431652  0.40914420  0.89492036     0.85800
O1587       O  0.59628552  0.48503490  0.89270458    -0.78300
O1588       O  0.58125041  0.48321189  0.84825342    -0.88600
C1589       C  0.60041273  0.44764161  0.95378154     0.85300
O1590       O  0.53473815  0.42325506  0.84751351    -0.66800
O1591       O  0.57577364  0.34881595  0.91814621    -0.86100
C1592       C  0.52545911  0.42089452  0.87235375     0.86200
C1593       C  0.59003058  0.49672638  0.87164765     1.07700
H1594       H  0.55463587  0.38855897  0.90371491     0.39500
O1595       O  0.57670419  0.40122005  0.90239278    -1.08700
O1596       O  0.63001599  0.41111382  0.87371131    -0.65400
Ni1597     Ni  0.58735820  0.39641467  0.86570476     1.26300
O1598       O  0.54365856  0.42976682  0.89318154    -0.65600
O1599       O  0.57833733  0.35453362  0.87162490    -0.77900
C1600       C  0.58249992  0.39644414  0.80812834     0.85600
O1601       O  0.59749390  0.39351788  0.82814955    -0.65100
Ni1602     Ni  0.59269550  0.38951160  0.93324408     1.27400
Ni1603     Ni  0.58683790  0.44325809  0.89832706     1.26100
H1604       H  0.61742100  0.45138912  0.85791809     0.40100
O1605       O  0.57456329  0.14919252  0.80905846    -0.79900
O1606       O  0.54201564  0.12447980  0.93661756    -0.64500
O1607       O  0.55014691  0.15167231  0.86083564    -1.11200
C1608       C  0.65063331  0.22680564  0.89126647     1.07000
O1609       O  0.56186274  0.17198254  0.95199390    -0.77800
O1610       O  0.58531905  0.22076693  0.91752116    -0.65300
Ni1611     Ni  0.53975676  0.12274796  0.83158198     1.34900
C1612       C  0.57800503  0.22596009  0.89348626     0.85800
O1613       O  0.50307327  0.10581550  0.89427073    -0.78300
O1614       O  0.50339986  0.09257038  0.85007802    -0.88600
C1615       C  0.54439178  0.14311723  0.95533421     0.85300
O1616       O  0.56235139  0.10457110  0.84616624    -0.66800
O1617       O  0.63946229  0.22012858  0.91569898    -0.86100
C1618       C  0.56491574  0.09660501  0.87076370     0.86200
C1619       C  0.99066257  0.08792896  0.87373975     1.07700
H1620       H  0.59986863  0.15703527  0.90310277     0.39500
O1621       O  0.58774938  0.16717410  0.90158276    -1.08700
O1622       O  0.57962185  0.21263469  0.87176206    -0.65400
Ni1623     Ni  0.59254283  0.18300049  0.86441494     1.26300
O1624       O  0.55710468  0.10582916  0.89206744    -0.65600
O1625       O  0.63500304  0.21402897  0.86938202    -0.77900
C1626       C  0.59164127  0.17817182  0.80656910     0.85600
O1627       O  0.59621959  0.19639354  0.82642960    -0.65100
Ni1628     Ni  0.59997310  0.19476720  0.93206803     1.27400
Ni1629     Ni  0.54539652  0.13661585  0.89846270     1.26100
H1630       H  0.53753440  0.16118452  0.85838679     0.40100
O1631       O  0.92090602  0.06849349  0.19365253    -0.79900
O1632       O  0.95994942  0.07975584  0.06662825    -0.64500
O1633       O  0.94857825  0.09431420  0.14234459    -1.11200
C1634       C  0.85176487  0.07750657  0.10656085     1.07000
O1635       O  0.94426096  0.11177337  0.05187039    -0.77800
O1636       O  0.91624401  0.13431096  0.08349433    -0.65300
Ni1637     Ni  0.95306335  0.06997857  0.17096185     1.34900
C1638       C  0.92420372  0.14628040  0.10739745     0.85800
O1639       O  0.99532214  0.09338050  0.11157301    -0.78300
O1640       O  0.98703941  0.06940121  0.15278749    -0.88600
C1641       C  0.96100339  0.09942963  0.04906896     0.85300
O1642       O  0.92396719  0.03192197  0.15471868    -0.66800
O1643       O  0.86311790  0.07992348  0.08234904    -0.86100
C1644       C  0.92500470  0.02284095  0.13045320     0.86200
C1645       C  0.50325403  0.08133721  0.13108678     1.07700
H1646       H  0.90003180  0.05546502  0.09798028     0.39500
O1647       O  0.91339676  0.07745752  0.09968999    -1.08700
O1648       O  0.92467544  0.13133586  0.12883354    -0.65400
Ni1649     Ni  0.90786465  0.08795145  0.13623968     1.26300
O1650       O  0.93886355  0.04170728  0.11050491    -0.65600
O1651       O  0.86702313  0.08100564  0.12900358    -0.77900
C1652       C  0.90644064  0.08339484  0.19456875     0.85600
O1653       O  0.90340717  0.09731349  0.17362465    -0.65100
Ni1654     Ni  0.90402216  0.09495795  0.06843289     1.27400
Ni1655     Ni  0.95447379  0.08560933  0.10494471     1.26100
H1656       H  0.96273298  0.11577869  0.14614731     0.40100
C1657       C  0.98953966  0.08973947  0.01120417     0.24600
C1658       C  0.98349031  0.11022838  0.02601275    -0.23500
C1659       C  0.49875000  0.14159300  0.01826265     0.19500
C1660       C  0.51939995  0.15227008  0.99616588     0.24600
C1661       C  0.52468419  0.13170219  0.98050059    -0.23400
C1662       C  0.00960676  0.10025451  0.98839950     0.19500
F1663       F  0.01397596  0.07959279  0.97393023    -0.13400
F1664       F  0.97487818  0.05928232  0.01794088    -0.15700
F1665       F  0.53327513  0.18275774  0.98953457    -0.15700
F1666       F  0.49360307  0.16213554  0.03207230    -0.13400
C1667       C  0.55868285  0.28656603  0.91499708     0.24600
C1668       C  0.56708710  0.30576631  0.89118712    -0.23500
C1669       C  0.57269427  0.29470608  0.86625608     0.19500
C1670       C  0.57281610  0.26665632  0.86606015     0.24600
C1671       C  0.56883128  0.24998281  0.89102177    -0.23400
C1672       C  0.55973003  0.25921566  0.91493894     0.19500
F1673       F  0.55309458  0.24242813  0.93888489    -0.13400
F1674       F  0.55112317  0.29498270  0.93909743    -0.15700
F1675       F  0.57887558  0.25702221  0.84185476    -0.15700
F1676       F  0.58033626  0.31192964  0.84252944    -0.13400
C1677       C  0.57551507  0.03087265  0.89816030     0.24600
C1678       C  0.58961521  0.02597573  0.87515285    -0.23500
C1679       C  0.59923028  0.04699014  0.85279151     0.19500
C1680       C  0.59334874  0.07145799  0.85261734     0.24600
C1681       C  0.57645782  0.07466309  0.87423055    -0.23400
C1682       C  0.56828056  0.05461358  0.89745556     0.19500
F1683       F  0.55122667  0.05633548  0.91840323    -0.13400
F1684       F  0.57079010  0.51376832  0.92083624    -0.15700
F1685       F  0.60306877  0.09127460  0.83057116    -0.15700
F1686       F  0.61326093  0.04310048  0.83045877    -0.13400
C1687       C  0.59473221  0.48151249  0.98869502     0.24600
C1688       C  0.61275284  0.47048043  0.97649229    -0.23500
C1689       C  0.64314315  0.48175308  0.98598932     0.19500
C1690       C  0.65476439  0.00350888  0.00708713     0.24600
C1691       C  0.63610429  0.01285971  0.02084420    -0.23400
C1692       C  0.60638913  0.50232302  0.01080444     0.19500
F1693       F  0.58668305  0.00949863  0.02429862    -0.13400
F1694       F  0.56548324  0.47146609  0.97980474    -0.15700
F1695       F  0.68460224  0.01465845  0.01469498    -0.15700
F1696       F  0.66160285  0.47236652  0.97418697    -0.13400
C1697       C  0.57618009  0.08180452  0.15183205     0.24600
C1698       C  0.58199361  0.06880370  0.12837912    -0.23500
C1699       C  0.56382680  0.06385396  0.10423631     0.19500
C1700       C  0.53875398  0.06907566  0.10457955     0.24600
C1701       C  0.53196305  0.08006851  0.12876233    -0.23400
C1702       C  0.55130320  0.08700576  0.15206390     0.19500
F1703       F  0.54551268  0.09802189  0.17555130    -0.13400
F1704       F  0.59393112  0.08861197  0.17511011    -0.15700
F1705       F  0.51973069  0.06104102  0.08209664    -0.15700
F1706       F  0.56914190  0.05235782  0.08080456    -0.13400
C1707       C  0.77053673  0.05655462  0.08522233     0.24600
C1708       C  0.76083916  0.06680179  0.10799299    -0.23500
C1709       C  0.77976043  0.07723578  0.13185062     0.19500
C1710       C  0.80871801  0.07926016  0.13211161     0.24600
C1711       C  0.81945494  0.07120763  0.10833813    -0.23400
C1712       C  0.79956398  0.05909456  0.08520902     0.19500
F1713       F  0.80844874  0.05042938  0.06203348    -0.13400
F1714       F  0.75219357  0.04489090  0.06244670    -0.15700
F1715       F  0.82689190  0.09101994  0.15498208    -0.15700
F1716       F  0.77130281  0.08770264  0.15415169    -0.13400
C1717       C  0.51197389  0.42741845  0.10004602     0.24600
C1718       C  0.00036574  0.40615367  0.12229973    -0.23500
C1719       C  0.52108463  0.40613215  0.14238113     0.19500
C1720       C  0.55205531  0.42901478  0.14196758     0.24600
C1721       C  0.56307058  0.45194818  0.12115519    -0.23400
C1722       C  0.54314821  0.45014916  0.09948110     0.19500
F1723       F  0.55305105  0.47240687  0.07946078    -0.13400
F1724       F  0.99273777  0.42813032  0.08031112    -0.15700
F1725       F  0.57094770  0.42988337  0.16287071    -0.15700
F1726       F  0.51105465  0.38480159  0.16325127    -0.13400
C1727       C  0.80599466  0.21032401  0.13333293     0.24600
C1728       C  0.81337185  0.23094692  0.11068850    -0.23500
C1729       C  0.79174193  0.22340523  0.08900788     0.19500
C1730       C  0.76453510  0.19491864  0.08881220     0.24600
C1731       C  0.75790944  0.17341475  0.11060897    -0.23400
C1732       C  0.77832705  0.18205964  0.13350602     0.19500
F1733       F  0.77280435  0.16219701  0.15509244    -0.13400
F1734       F  0.82674786  0.21617565  0.15410277    -0.15700
F1735       F  0.74516190  0.18798924  0.06669280    -0.15700
F1736       F  0.79756382  0.24316467  0.06727429    -0.13400
C1737       C  0.91414065  0.44719612  0.10336990     0.24600
C1738       C  0.89967373  0.42737320  0.12609486    -0.23500
C1739       C  0.88861046  0.43764271  0.14786488     0.19500
C1740       C  0.89391511  0.46789334  0.14786208     0.24600
C1741       C  0.91165116  0.48890339  0.12668648    -0.23400
C1742       C  0.92031570  0.47773051  0.10372312     0.19500
F1743       F  0.94041655  0.99836386  0.08364113    -0.13400
F1744       F  0.92532562  0.43808102  0.08213945    -0.15700
F1745       F  0.88307745  0.47699624  0.16942453    -0.15700
F1746       F  0.87394383  0.41884832  0.16984550    -0.13400
C1747       C  0.92391152  0.18867756  0.13478960     0.24600
C1748       C  0.93069879  0.17845313  0.11008555    -0.23500
C1749       C  0.93820879  0.19724046  0.08615528     0.19500
C1750       C  0.93473748  0.22320922  0.08568018     0.24600
C1751       C  0.92488016  0.23188984  0.10951989    -0.23400
C1752       C  0.92153791  0.21550898  0.13463068     0.19500
F1753       F  0.91404851  0.22415458  0.15865096    -0.13400
F1754       F  0.91711882  0.17150821  0.15851737    -0.15700
F1755       F  0.93996640  0.23913569  0.06135945    -0.15700
F1756       F  0.94728322  0.18949317  0.06251863    -0.13400
C1757       C  0.70287599  0.25968970  0.91204694     0.24600
C1758       C  0.68297199  0.25213378  0.88887075    -0.23500
C1759       C  0.69282799  0.27191577  0.86546656     0.19500
C1760       C  0.72029831  0.30023396  0.86655744     0.24600
C1761       C  0.73838048  0.30911885  0.89099687    -0.23400
C1762       C  0.73029780  0.28781347  0.91303775     0.19500
F1763       F  0.74836271  0.29474926  0.93611464    -0.13400
F1764       F  0.69502580  0.24054945  0.93451913    -0.15700
F1765       F  0.72770630  0.32003026  0.84461865    -0.15700
F1766       F  0.67467912  0.26528124  0.84248051    -0.13400
C1767       C  0.91782023  0.01647413  0.85373711     0.24600
C1768       C  0.91344547  0.49654351  0.87762728    -0.23500
C1769       C  0.93334030  0.50827046  0.90076674     0.19500
C1770       C  0.95486534  0.04052573  0.90110342     0.24600
C1771       C  0.96105133  0.05903676  0.87703571    -0.23400
C1772       C  0.94164347  0.04691854  0.85374739     0.19500
F1773       F  0.94699377  0.06402645  0.83011562    -0.13400
F1774       F  0.90036652  0.00567311  0.83033561    -0.15700
F1775       F  0.47369829  0.05125679  0.92367649    -0.15700
F1776       F  0.93176763  0.48927719  0.92194080    -0.13400
C1777       C  0.72648517  0.43193737  0.91223762     0.24600
C1778       C  0.73320683  0.41713289  0.89094410    -0.23500
C1779       C  0.71230415  0.40414488  0.86863566     0.19500
C1780       C  0.68404475  0.40344388  0.86901322     0.24600
C1781       C  0.67623911  0.41569719  0.89166316    -0.23400
C1782       C  0.69811159  0.43093513  0.91273608     0.19500
F1783       F  0.69163501  0.44410504  0.93423849    -0.13400
F1784       F  0.74701847  0.44654743  0.93307816    -0.15700
F1785       F  0.66327567  0.38838440  0.84843741    -0.15700
F1786       F  0.71801250  0.38983163  0.84759320    -0.13400
C1787       C  0.94052100  0.38418870  0.85662951     0.24600
C1788       C  0.93052196  0.39548948  0.87832956    -0.23500
C1789       C  0.95063808  0.41077082  0.90063640     0.19500
C1790       C  0.98109422  0.41682374  0.90002938     0.24600
C1791       C  0.49204539  0.40846870  0.87666040    -0.23400
C1792       C  0.97099283  0.39081774  0.85563868     0.19500
F1793       F  0.48013711  0.38111078  0.83331295    -0.13400
F1794       F  0.92114861  0.36817549  0.83546252    -0.15700
F1795       F  0.00030836  0.43302888  0.92121758    -0.15700
F1796       F  0.94180906  0.42260713  0.92160620    -0.13400
C1797       C  0.84326891  0.34550144  0.98498038     0.24600
C1798       C  0.85733460  0.37729937  0.97938701    -0.23500
C1799       C  0.88364994  0.39748370  0.99475421     0.19500
C1800       C  0.89494361  0.38614746  0.01605667     0.24600
C1801       C  0.88076170  0.35415633  0.02182564    -0.23400
C1802       C  0.85518001  0.33401210  0.00539630     0.19500
F1803       F  0.84129532  0.30298246  0.00906828    -0.13400
F1804       F  0.81830056  0.32526358  0.97004740    -0.15700
F1805       F  0.91982178  0.40660137  0.03091553    -0.15700
F1806       F  0.89800844  0.42830935  0.98962007    -0.13400
C1807       C  0.87489326  0.05614503  0.26514064     0.24600
C1808       C  0.89159839  0.08375111  0.28005120    -0.23500
C1809       C  0.90560839  0.11193344  0.26539207     0.19500
C1810       C  0.90645779  0.11224380  0.23622513     0.24600
C1811       C  0.89368966  0.08435609  0.22168064    -0.23400
C1812       C  0.87579206  0.05650769  0.23607780     0.19500
F1813       F  0.86204651  0.02940420  0.22208866    -0.13400
F1814       F  0.86080672  0.02857499  0.27874879    -0.15700
F1815       F  0.92337596  0.13943878  0.22254003    -0.15700
F1816       F  0.92243289  0.13877353  0.27926981    -0.13400
C1817       C  0.60224251  0.20769231  0.73329092     0.24600
C1818       C  0.61188994  0.18832721  0.72128958    -0.23500
C1819       C  0.62302746  0.17321107  0.73880526     0.19500
C1820       C  0.62054034  0.17390650  0.76757461     0.24600
C1821       C  0.60656412  0.18937461  0.77939076    -0.23400
C1822       C  0.59957279  0.20818533  0.76236877     0.19500
F1823       F  0.58669706  0.22391238  0.77351854    -0.13400
F1824       F  0.59178896  0.22296024  0.71696881    -0.15700
F1825       F  0.62852290  0.15648041  0.78381161    -0.15700
F1826       F  0.63340322  0.15508103  0.72800928    -0.13400
C1827       C  0.51309475  0.14682022  0.51384607     0.24600
C1828       C  0.52535681  0.12854090  0.52374272    -0.23500
C1829       C  0.01517273  0.09948346  0.51153680     0.19500
C1830       C  0.99431150  0.08979022  0.48896681     0.24600
C1831       C  0.98234043  0.10845320  0.47892916    -0.23400
C1832       C  0.49203527  0.13702113  0.49182935     0.19500
F1833       F  0.48176745  0.15615585  0.48269477    -0.13400
F1834       F  0.52088722  0.17413178  0.52603988    -0.15700
F1835       F  0.98563172  0.06206697  0.47719860    -0.15700
F1836       F  0.02563500  0.08065994  0.52116812    -0.13400
C1837       C  0.55688434  0.36945083  0.73566642     0.24600
C1838       C  0.58538087  0.38181543  0.72206829    -0.23500
C1839       C  0.61214487  0.39101561  0.73808779     0.19500
C1840       C  0.61095395  0.39235651  0.76721647     0.24600
C1841       C  0.58301097  0.38479022  0.78023684    -0.23400
C1842       C  0.55576832  0.37126120  0.76448104     0.19500
F1843       F  0.52828751  0.36231528  0.77679828    -0.13400
F1844       F  0.53033264  0.35855601  0.72080027    -0.15700
F1845       F  0.63749653  0.40439475  0.78218576    -0.15700
F1846       F  0.63981400  0.40228176  0.72547920    -0.13400
C1847       C  0.56205771  0.28423582  0.59081223     0.24600
C1848       C  0.57845837  0.30577442  0.61175490    -0.23500
C1849       C  0.59276893  0.29788674  0.63312135     0.19500
C1850       C  0.59309369  0.27013465  0.63206084     0.24600
C1851       C  0.57926129  0.24995099  0.60957270    -0.23400
C1852       C  0.56275035  0.25666378  0.58953047     0.19500
F1853       F  0.54793209  0.23689863  0.56836156    -0.13400
F1854       F  0.54618755  0.29040671  0.57107444    -0.15700
F1855       F  0.60926279  0.26431536  0.65175424    -0.15700
F1856       F  0.60868510  0.31809241  0.65374636    -0.13400
C1857       C  0.58573764  0.02933097  0.60126088     0.24600
C1858       C  0.60095369  0.02417016  0.62374358    -0.23500
C1859       C  0.61310672  0.04563240  0.64532226     0.19500
C1860       C  0.60808465  0.07055597  0.64569465     0.24600
C1861       C  0.59088500  0.07462197  0.62434390    -0.23400
C1862       C  0.58112267  0.05469570  0.60135909     0.19500
F1863       F  0.56449752  0.05786654  0.58034412    -0.13400
F1864       F  0.57234804  0.00812046  0.58078726    -0.15700
F1865       F  0.61835929  0.08951557  0.66803167    -0.15700
F1866       F  0.62801124  0.04127593  0.66717567    -0.13400
C1867       C  0.70881314  0.07475693  0.26706874     0.24600
C1868       C  0.69722193  0.09191064  0.28013413    -0.23500
C1869       C  0.68904025  0.11022631  0.26367171     0.19500
C1870       C  0.68970938  0.10925443  0.23466627     0.24600
C1871       C  0.69809606  0.08960483  0.22158795    -0.23400
C1872       C  0.70897758  0.07340186  0.23787620     0.19500
F1873       F  0.71589566  0.05324271  0.22567676    -0.13400
F1874       F  0.71609147  0.05621635  0.28238511    -0.15700
F1875       F  0.67868225  0.12471419  0.21931322    -0.15700
F1876       F  0.67748313  0.12674244  0.27568053    -0.13400
C1877       C  0.59886598  0.48070501  0.51324955     0.24600
C1878       C  0.61738973  0.46877287  0.52345988    -0.23500
C1879       C  0.64681189  0.47991582  0.51193951     0.19500
C1880       C  0.65679681  0.00134423  0.48995612     0.24600
C1881       C  0.63830992  0.01290627  0.47894110    -0.23400
C1882       C  0.60945884  0.50307594  0.49194321     0.19500
F1883       F  0.59154440  0.51502563  0.48351557    -0.13400
F1884       F  0.57034312  0.47055054  0.52371262    -0.15700
F1885       F  0.68508197  0.01044402  0.47935264    -0.15700
F1886       F  0.66571733  0.97088247  0.52275130    -0.13400
C1887       C  0.55546863  0.10114215  0.35510570     0.24600
C1888       C  0.53357035  0.08926906  0.37631064    -0.23500
C1889       C  0.53764227  0.07346751  0.39887258     0.19500
C1890       C  0.56168493  0.06679454  0.39871299     0.24600
C1891       C  0.58287817  0.07729876  0.37660333    -0.23400
C1892       C  0.58034580  0.09591496  0.35559418     0.19500
F1893       F  0.60122237  0.10795234  0.33474769    -0.13400
F1894       F  0.55217893  0.11699169  0.33341728    -0.15700
F1895       F  0.56256407  0.04793628  0.41887842    -0.15700
F1896       F  0.01681073  0.06220051  0.41982813    -0.13400
C1897       C  0.76950072  0.05615511  0.41924032     0.24600
C1898       C  0.75844970  0.06420233  0.39535052    -0.23500
C1899       C  0.77519089  0.07068382  0.37046163     0.19500
C1900       C  0.80398975  0.07243919  0.37028731     0.24600
C1901       C  0.81628594  0.06705882  0.39490886    -0.23400
C1902       C  0.79796862  0.05739008  0.41898671     0.19500
F1903       F  0.80808404  0.05022356  0.44274949    -0.13400
F1904       F  0.75323581  0.04815936  0.44326985    -0.15700
F1905       F  0.82070754  0.08172614  0.34651539    -0.15700
F1906       F  0.76497369  0.07788993  0.34679438    -0.13400
C1907       C  0.94008051  0.31495316  0.26564723     0.24600
C1908       C  0.91210162  0.29983467  0.28004170    -0.23500
C1909       C  0.88523760  0.27930676  0.26538014     0.19500
C1910       C  0.88562546  0.27820432  0.23610221     0.24600
C1911       C  0.91299264  0.29722144  0.22155712    -0.23400
C1912       C  0.94058860  0.31318418  0.23675413     0.19500
F1913       F  0.96787416  0.32935242  0.22337641    -0.13400
F1914       F  0.96672750  0.33344691  0.27942440    -0.15700
F1915       F  0.85886371  0.26113413  0.22201255    -0.15700
F1916       F  0.85817267  0.26285077  0.27899047    -0.13400
C1917       C  0.92606368  0.48140311  0.39806423     0.24600
C1918       C  0.91420126  0.49268935  0.37719319    -0.23500
C1919       C  0.89268500  0.47169600  0.35800318     0.19500
C1920       C  0.88617765  0.44101244  0.35759042     0.24600
C1921       C  0.90009153  0.43048052  0.37703674    -0.23400
C1922       C  0.91892279  0.45054305  0.39804625     0.19500
F1923       F  0.93300809  0.44112981  0.41691498    -0.13400
F1924       F  0.94671003  0.50071297  0.41705022    -0.15700
F1925       F  0.86720873  0.42191198  0.33755201    -0.15700
F1926       F  0.87815844  0.98084874  0.33944481    -0.13400
C1927       C  0.91310945  0.21347891  0.36773561     0.24600
C1928       C  0.92282859  0.23280700  0.39114873    -0.23500
C1929       C  0.93614140  0.22545658  0.41376164     0.19500
C1930       C  0.93736214  0.19813387  0.41403955     0.24600
C1931       C  0.92532772  0.17742210  0.39164678    -0.23400
C1932       C  0.91430763  0.18601088  0.36799309     0.19500
F1933       F  0.90232691  0.16671701  0.34600684    -0.13400
F1934       F  0.90021396  0.21985497  0.34545066    -0.15700
F1935       F  0.94925431  0.19139874  0.43685415    -0.15700
F1936       F  0.94714313  0.24431215  0.43614004    -0.13400
C1937       C  0.51848593  0.41572355  0.35347174     0.24600
C1938       C  0.99891952  0.41092978  0.37607789    -0.23500
C1939       C  0.51150422  0.42854886  0.40031965     0.19500
C1940       C  0.54204778  0.45279827  0.40057135     0.24600
C1941       C  0.56042275  0.45957012  0.37669534    -0.23400
C1942       C  0.54869400  0.44001795  0.35361732     0.19500
F1943       F  0.56609570  0.44523713  0.33056814    -0.13400
F1944       F  0.50802535  0.39758120  0.33060554    -0.15700
F1945       F  0.55268382  0.47126747  0.42321892    -0.15700
F1946       F  0.99377490  0.42386579  0.42303759    -0.13400
C1947       C  0.79218781  0.22670040  0.41004994     0.24600
C1948       C  0.81473007  0.23346245  0.38979700    -0.23500
C1949       C  0.80900350  0.21162539  0.36900894     0.19500
C1950       C  0.78242203  0.18261547  0.36989905     0.24600
C1951       C  0.76069874  0.17513245  0.39121228    -0.23400
C1952       C  0.76534346  0.19793152  0.41065934     0.19500
F1953       F  0.74438902  0.19208621  0.43087700    -0.13400
F1954       F  0.79680186  0.24757511  0.43002231    -0.15700
F1955       F  0.77930957  0.16101310  0.35127337    -0.15700
F1956       F  0.83042828  0.21717203  0.34933072    -0.13400
C1957       C  0.78871878  0.37643210  0.73711984     0.24600
C1958       C  0.80686864  0.40375101  0.72194612    -0.23500
C1959       C  0.81999288  0.43216397  0.73567488     0.19500
C1960       C  0.81766628  0.43316413  0.76444222     0.24600
C1961       C  0.80288529  0.40573784  0.78017748    -0.23400
C1962       C  0.78669291  0.37740954  0.76622648     0.19500
F1963       F  0.77226888  0.35055825  0.78088988    -0.13400
F1964       F  0.77637624  0.34869075  0.72433479    -0.15700
F1965       F  0.83274114  0.46091497  0.77729005    -0.15700
F1966       F  0.83781530  0.45886893  0.72153925    -0.13400
C1967       C  0.73880789  0.28990260  0.58841932     0.24600
C1968       C  0.74486942  0.31102742  0.60984980    -0.23500
C1969       C  0.72394878  0.30288653  0.63184015     0.19500
C1970       C  0.69643266  0.27476944  0.63146768     0.24600
C1971       C  0.68917858  0.25454691  0.60883082    -0.23400
C1972       C  0.71112012  0.26197878  0.58777591     0.19500
F1973       F  0.70545547  0.24265716  0.56612756    -0.13400
F1974       F  0.75932636  0.29688735  0.56753886    -0.15700
F1975       F  0.67587495  0.26858705  0.65216030    -0.15700
F1976       F  0.72879020  0.32326886  0.65238824    -0.13400
C1977       C  0.93038949  0.51230007  0.65359953     0.24600
C1978       C  0.92279417  0.49352669  0.62980224    -0.23500
C1979       C  0.93937221  0.00815535  0.60490864     0.19500
C1980       C  0.96443133  0.03826643  0.60498256     0.24600
C1981       C  0.97316509  0.05573549  0.62955504    -0.23400
C1982       C  0.95487476  0.04349722  0.65335955     0.19500
F1983       F  0.46182075  0.06020991  0.67708744    -0.13400
F1984       F  0.91380234  0.50179169  0.67738420    -0.15700
F1985       F  0.98157082  0.04933239  0.58157172    -0.15700
F1986       F  0.93307752  0.99132692  0.58134738    -0.13400
C1987       C  0.73471092  0.43081378  0.58719227     0.24600
C1988       C  0.74456938  0.42076970  0.61065917    -0.23500
C1989       C  0.72695933  0.41312057  0.63518949     0.19500
C1990       C  0.69839627  0.41186521  0.63510314     0.24600
C1991       C  0.68715041  0.41865646  0.61063610    -0.23400
C1992       C  0.70631509  0.42962422  0.58714973     0.19500
F1993       F  0.69689531  0.43773321  0.56347568    -0.13400
F1994       F  0.75184698  0.44048613  0.56366602    -0.15700
F1995       F  0.68067184  0.40133604  0.65821890    -0.15700
F1996       F  0.73614893  0.40461092  0.65874234    -0.13400
C1997       C  0.98827427  0.41346671  0.60196653     0.24600
C1998       C  0.50088808  0.40752687  0.62594789    -0.23500
C1999       C  0.98165552  0.39243452  0.64880821     0.19500
C2000       C  0.95124393  0.38586844  0.64863428     0.24600
C2001       C  0.93929723  0.39429200  0.62571002    -0.23400
C2002       C  0.95774487  0.40723322  0.60194099     0.19500
F2003       F  0.94736437  0.41672248  0.57981764    -0.13400
F2004       F  0.50618613  0.42782914  0.57952262    -0.15700
F2005       F  0.93398108  0.37293861  0.67172129    -0.15700
F2006       F  0.99268868  0.38540174  0.67207060    -0.13400
C2007       C  0.84576314  0.34754222  0.51426241     0.24600
C2008       C  0.86431041  0.37769216  0.52432459    -0.23500
C2009       C  0.89318861  0.39650663  0.51204842     0.19500
C2010       C  0.90294942  0.38568182  0.48970671     0.24600
C2011       C  0.88435632  0.35546182  0.47969280    -0.23400
C2012       C  0.85569409  0.33655398  0.49240637     0.19500
F2013       F  0.83663358  0.30749591  0.48321128    -0.13400
F2014       F  0.81801125  0.32826988  0.52585932    -0.15700
F2015       F  0.93067647  0.40476133  0.47804092    -0.15700
F2016       F  0.91169495  0.42566252  0.52123680    -0.13400
O2017       O  0.82425428  0.87856738  0.54976330    -0.79900
O2018       O  0.79980884  0.88940189  0.67299948    -0.64500
O2019       O  0.82859013  0.91152408  0.59829285    -1.11200
C2020       C  0.90933928  0.89511133  0.62828490     1.07000
O2021       O  0.84687629  0.91881520  0.68954643    -0.77800
O2022       O  0.89415847  0.94949877  0.65561352    -0.65300
Ni2023     Ni  0.80170702  0.89587244  0.56720280     1.34900
C2024       C  0.90032940  0.96124790  0.63139900     0.85800
O2025       O  0.78082267  0.90975030  0.62900258    -0.78300
O2026       O  0.77704169  0.91179329  0.58231741    -0.88600
C2027       C  0.81797713  0.90365490  0.69298045     0.85300
O2028       O  0.77374362  0.85584621  0.58136658    -0.66800
O2029       O  0.90310942  0.90026822  0.65260017    -0.86100
C2030       C  0.76934626  0.84327583  0.60522632     0.86200
C2031       C  0.76911709  0.91435990  0.60692630     1.07700
H2032       H  0.83687914  0.86852582  0.64094723     0.39500
O2033       O  0.84566101  0.89080146  0.63912162    -1.08700
O2034       O  0.88951021  0.94524690  0.60936855    -0.65400
Ni2035     Ni  0.86079499  0.90200503  0.60203071     1.26300
O2036       O  0.78456498  0.85734483  0.62677679    -0.65600
O2037       O  0.89328330  0.89286694  0.60685041    -0.77900
C2038       C  0.85310698  0.89005384  0.54659022     0.85600
O2039       O  0.87185925  0.90974279  0.56369337    -0.65100
Ni2040     Ni  0.87341866  0.90850933  0.66944314     1.27400
Ni2041     Ni  0.81294245  0.89990658  0.63499228     1.26100
H2042       H  0.83761949  0.93364693  0.59705437     0.40100
O2043       O  0.88060935  0.81400206  0.45208970    -0.79900
O2044       O  0.89546377  0.79210712  0.32783189    -0.64500
O2045       O  0.91389146  0.81822717  0.40349630    -1.11200
C2046       C  0.89930502  0.90077856  0.37330189     1.07000
O2047       O  0.92590505  0.83967986  0.31281140    -0.77800
O2048       O  0.95439260  0.88661204  0.34818270    -0.65300
Ni2049     Ni  0.89636759  0.79029503  0.43378052     1.34900
C2050       C  0.96523606  0.89101098  0.37275654     0.85800
O2051       O  0.91447704  0.77199889  0.37176410    -0.78300
O2052       O  0.91087234  0.76446166  0.41827993    -0.88600
C2053       C  0.91036812  0.81084451  0.30840088     0.85300
O2054       O  0.85671713  0.76432417  0.41814485    -0.66800
O2055       O  0.90428242  0.89474913  0.34881763    -0.86100
C2056       C  0.84623146  0.75899136  0.39345227     0.86200
C2057       C  0.91607275  0.75829646  0.39382888     1.07700
H2058       H  0.87307384  0.82795639  0.35983559     0.39500
O2059       O  0.89500429  0.83673819  0.36221377    -1.08700
O2060       O  0.94848822  0.87917949  0.39411320    -0.65400
Ni2061     Ni  0.90509835  0.85105292  0.39970537     1.26300
O2062       O  0.86172589  0.77408056  0.37235972    -0.65600
O2063       O  0.89702387  0.88440695  0.39463487    -0.77900
C2064       C  0.89347055  0.84304817  0.45575979     0.85600
O2065       O  0.91238626  0.86170764  0.43812377    -0.65100
Ni2066     Ni  0.91411493  0.86562638  0.33254068     1.27400
Ni2067     Ni  0.90428433  0.80395672  0.36614351     1.26100
H2068       H  0.93583606  0.82692321  0.40569307     0.40100
O2069       O  0.67865195  0.55293811  0.45299098    -0.79900
O2070       O  0.70288232  0.58520125  0.32966572    -0.64500
O2071       O  0.67454555  0.58182905  0.40377371    -1.11200
C2072       C  0.59039825  0.98890539  0.37330422     1.07000
O2073       O  0.65759185  0.57629213  0.31435244    -0.77800
O2074       O  0.61131594  0.56334821  0.34902828    -0.65300
Ni2075     Ni  0.70142451  0.59268077  0.43478721     1.34900
C2076       C  0.60439817  0.56614260  0.37368369     0.85800
O2077       O  0.72485448  0.62507768  0.37251416    -0.78300
O2078       O  0.72598228  0.63303377  0.41869911    -0.88600
C2079       C  0.68533385  0.58366121  0.30975946     0.85300
O2080       O  0.72953287  0.58071372  0.42103828    -0.66800
O2081       O  0.59592357  0.00284785  0.34976506    -0.86100
C2082       C  0.73220661  0.56990757  0.39813841     0.86200
C2083       C  0.73549167  0.64223393  0.39391924     1.07700
H2084       H  0.66157706  0.52963629  0.36087493     0.39500
O2085       O  0.65497907  0.54461446  0.36345272    -1.08700
O2086       O  0.61336605  0.55714921  0.39490920    -0.65400
Ni2087     Ni  0.64090023  0.54080562  0.40074280     1.26300
O2088       O  0.71523443  0.56645944  0.37705301    -0.65600
O2089       O  0.60816722  0.99957086  0.39438650    -0.77900
C2090       C  0.64976366  0.53625023  0.45661641     0.85600
O2091       O  0.63084834  0.53724631  0.43938354    -0.65100
Ni2092     Ni  0.62770972  0.53972749  0.33376556     1.27400
Ni2093     Ni  0.69017222  0.58453938  0.36733761     1.26100
H2094       H  0.66646019  0.59581427  0.40410387     0.40100
O2095       O  0.61790431  0.92830430  0.54891871    -0.79900
O2096       O  0.60302467  0.89009105  0.67375096    -0.64500
O2097       O  0.58474364  0.89817163  0.59744756    -1.11200
C2098       C  0.59916094  0.99415352  0.62728124     1.07000
O2099       O  0.56941907  0.90419612  0.68512559    -0.77800
O2100       O  0.54395587  0.92716914  0.65211712    -0.65300
Ni2101     Ni  0.60205532  0.88849683  0.56716246     1.34900
C2102       C  0.53281893  0.91933741  0.62792364     0.85800
O2103       O  0.58673703  0.85219692  0.62960091    -0.78300
O2104       O  0.58756983  0.84807875  0.58291549    -0.88600
C2105       C  0.58576881  0.89225653  0.69171110     0.85300
O2106       O  0.64172659  0.90239288  0.58279556    -0.66800
O2107       O  0.59541105  0.98318020  0.65196197    -0.86100
C2108       C  0.65345149  0.91013949  0.60691647     0.86200
C2109       C  0.58387812  0.83690839  0.60759320     1.07700
H2110       H  0.62451399  0.94836822  0.64051249     0.39500
O2111       O  0.60265832  0.93473670  0.63822329    -1.08700
O2112       O  0.54908502  0.92288757  0.60659920    -0.65400
Ni2113     Ni  0.59250342  0.93921143  0.60081955     1.26300
O2114       O  0.63807463  0.90892963  0.62827904    -0.65600
O2115       O  0.59952847  0.97992534  0.60567411    -0.77900
C2116       C  0.60544715  0.94499510  0.54541245     0.85600
O2117       O  0.58543432  0.94326450  0.56234600    -0.65100
Ni2118     Ni  0.58364395  0.94356724  0.66772020     1.27400
Ni2119     Ni  0.59492354  0.89349970  0.63486721     1.26100
H2120       H  0.56282638  0.88460509  0.59553303     0.40100
O2121       O  0.56445756  0.66831747  0.54992259    -0.79900
O2122       O  0.60506166  0.69513110  0.67287521    -0.64500
O2123       O  0.59570505  0.66554125  0.59822985    -1.11200
C2124       C  0.00407256  0.58235670  0.63152557     1.07000
O2125       O  0.59400527  0.64912616  0.68841606    -0.77800
O2126       O  0.58029857  0.60463008  0.65308807    -0.65300
Ni2127     Ni  0.60464497  0.69226776  0.56700985     1.34900
C2128       C  0.58114948  0.59685995  0.62836628     0.85800
O2129       O  0.64173282  0.71548555  0.62799768    -0.78300
O2130       O  0.64561218  0.71846392  0.58127989    -0.88600
C2131       C  0.60357459  0.67743830  0.69271315     0.85300
O2132       O  0.59166213  0.71922578  0.58180355    -0.66800
O2133       O  0.51917376  0.58754801  0.65426988    -0.86100
C2134       C  0.58411030  0.72311628  0.60590869     0.86200
C2135       C  0.65674469  0.72746097  0.60566907     1.07700
H2136       H  0.54689589  0.65496848  0.64422291     0.39500
O2137       O  0.56103420  0.64755836  0.64061108    -1.08700
O2138       O  0.56987792  0.60441995  0.60796765    -0.65400
Ni2139     Ni  0.55454893  0.63276016  0.60330856     1.26300
O2140       O  0.58424752  0.70789156  0.62723430    -0.65600
O2141       O  0.51390947  0.60000995  0.61025924    -0.77900
C2142       C  0.54729319  0.63925584  0.54733019     0.85600
O2143       O  0.54836442  0.62088392  0.56510959    -0.65100
Ni2144     Ni  0.55684690  0.61990345  0.66990867     1.27400
Ni2145     Ni  0.60130637  0.68165611  0.63497107     1.26100
H2146       H  0.60910750  0.65689245  0.59662152     0.40100
O2147       O  0.94176528  0.60968275  0.45330686    -0.79900
O2148       O  0.89798895  0.59474085  0.32902987    -0.64500
O2149       O  0.91132666  0.57702676  0.40413469    -1.11200
C2150       C  0.50462469  0.59017485  0.37327772     1.07000
O2151       O  0.91986463  0.57020569  0.30976997    -0.77800
O2152       O  0.92715252  0.53587482  0.34837937    -0.65300
Ni2153     Ni  0.90223268  0.59470975  0.43492594     1.34900
C2154       C  0.92737751  0.52639067  0.37288895     0.85800
O2155       O  0.86206499  0.57455160  0.37386153    -0.78300
O2156       O  0.86170984  0.58114746  0.42002310    -0.88600
C2157       C  0.90332010  0.58281169  0.30818306     0.85300
O2158       O  0.91657047  0.63487636  0.41962266    -0.66800
O2159       O  0.98938851  0.57847676  0.35108120    -0.86100
C2160       C  0.91955544  0.64528149  0.39494429     0.86200
C2161       C  0.84842569  0.57413392  0.39623153     1.07700
H2162       H  0.95860471  0.61901504  0.35801558     0.39500
O2163       O  0.94609167  0.59711402  0.36147592    -1.08700
O2164       O  0.94012680  0.54480476  0.39312397    -0.65400
Ni2165     Ni  0.95306301  0.58800510  0.39896141     1.26300
O2166       O  0.91600737  0.62897675  0.37358860    -0.65600
O2167       O  0.99474967  0.59948923  0.39289372    -0.77900
C2168       C  0.95929416  0.59804281  0.45551218     0.85600
O2169       O  0.95933812  0.58044782  0.43688257    -0.65100
Ni2170     Ni  0.95354444  0.57539636  0.33276983     1.27400
Ni2171     Ni  0.90404825  0.58633363  0.36700168     1.26100
H2172       H  0.89909732  0.55494880  0.40663970     0.40100
O2173       O  0.84010973  0.92479566  0.81582292    -0.79900
O2174       O  0.86394159  0.90942637  0.93961034    -0.64500
O2175       O  0.83878635  0.89256803  0.86365452    -1.11200
C2176       C  0.75854376  0.90978387  0.89394711     1.07000
O2177       O  0.81668582  0.87648661  0.95321962    -0.77800
O2178       O  0.76705293  0.85162136  0.91926201    -0.65300
Ni2179     Ni  0.86666643  0.91253164  0.83408811     1.34900
C2180       C  0.76309893  0.84059459  0.89492946     0.85800
O2181       O  0.88685732  0.89529970  0.89627610    -0.78300
O2182       O  0.89570306  0.90218885  0.85019304    -0.88600
C2183       C  0.84570987  0.88922328  0.95667862     0.85300
O2184       O  0.88805138  0.95253050  0.84954669    -0.66800
O2185       O  0.76574414  0.90558099  0.91860977    -0.86100
C2186       C  0.89232037  0.96325176  0.87393884     0.86200
C2187       C  0.90221493  0.89697534  0.87472810     1.07700
H2188       H  0.82767198  0.93202909  0.90609138     0.39500
O2189       O  0.81959812  0.91008443  0.90428298    -1.08700
O2190       O  0.77760296  0.85659622  0.87381257    -0.65400
Ni2191     Ni  0.80490854  0.89981210  0.86687122     1.26300
O2192       O  0.88043378  0.94632621  0.89535071    -0.65600
O2193       O  0.77156365  0.90776253  0.87198146    -0.77900
C2194       C  0.81221659  0.90684996  0.80938553     0.85600
O2195       O  0.79312538  0.89069373  0.82815646    -0.65100
Ni2196     Ni  0.79222286  0.89169258  0.93455606     1.27400
Ni2197     Ni  0.85316075  0.90255629  0.90107862     1.26100
H2198       H  0.83095455  0.87074148  0.86141259     0.40100
O2199       O  0.92851332  0.83410764  0.18662095    -0.79900
O2200       O  0.91053026  0.85938798  0.06285407    -0.64500
O2201       O  0.89596542  0.83396973  0.13907953    -1.11200
C2202       C  0.91454164  0.75494467  0.10670312     1.07000
O2203       O  0.87823129  0.81201331  0.04910705    -0.77800
O2204       O  0.85539478  0.76125445  0.08257743    -0.65300
Ni2205     Ni  0.91801179  0.86208498  0.16815617     1.34900
C2206       C  0.84415722  0.75669077  0.10685938     0.85800
O2207       O  0.89787869  0.88252506  0.10712641    -0.78300
O2208       O  0.90955401  0.89290932  0.15247172    -0.88600
C2209       C  0.89084523  0.84113621  0.04545387     0.85300
O2210       O  0.95765538  0.88089234  0.15169936    -0.66800
O2211       O  0.91014999  0.76259226  0.08225980    -0.86100
C2212       C  0.96706217  0.88597601  0.12679852     0.86200
C2213       C  0.90220561  0.89894313  0.12861697     1.07700
H2214       H  0.93438895  0.82334637  0.09560441     0.39500
O2215       O  0.91249798  0.81507654  0.09754181    -1.08700
O2216       O  0.85948025  0.77192808  0.12801995    -0.65400
Ni2217     Ni  0.90275671  0.79973962  0.13481663     1.26300
O2218       O  0.94887598  0.87599707  0.10595324    -0.65600
O2219       O  0.91108292  0.76662406  0.12893893    -0.77900
C2220       C  0.91088611  0.80578138  0.19229596     0.85600
O2221       O  0.89419389  0.78729138  0.17341003    -0.65100
Ni2222     Ni  0.89474151  0.78815696  0.06702002     1.27400
Ni2223     Ni  0.90491614  0.84860833  0.10149022     1.26100
H2224       H  0.87435077  0.82631956  0.14220043     0.40100
O2225       O  0.65632091  0.56038035  0.19277909    -0.79900
O2226       O  0.62991289  0.53252572  0.06352959    -0.64500
O2227       O  0.65745547  0.53949988  0.13896814    -1.11200
C2228       C  0.73139043  0.64100974  0.10785454     1.07000
O2229       O  0.67729807  0.55084885  0.04844990    -0.77800
O2230       O  0.72743850  0.57760762  0.08145202    -0.65300
Ni2231     Ni  0.62841707  0.52832164  0.16842874     1.34900
C2232       C  0.73345261  0.57124202  0.10553630     0.85800
O2233       O  0.61088266  0.99351816  0.10542633    -0.78300
O2234       O  0.59726625  0.99366957  0.14950615    -0.88600
C2235       C  0.64842761  0.53372391  0.04516615     0.85300
O2236       O  0.61333849  0.55440736  0.15541976    -0.66800
O2237       O  0.72424971  0.63013432  0.08326204    -0.86100
C2238       C  0.60400271  0.55664398  0.13128642     0.86200
C2239       C  0.59266870  0.98112682  0.12576323     1.07700
H2240       H  0.66236110  0.58988141  0.09703486     0.39500
O2241       O  0.67245617  0.57769362  0.09835954    -1.08700
O2242       O  0.71882507  0.57069737  0.12717002    -0.65400
Ni2243     Ni  0.68845317  0.58236190  0.13522846     1.26300
O2244       O  0.61144922  0.54754029  0.10950031    -0.65600
O2245       O  0.71897305  0.62507210  0.12981304    -0.77900
C2246       C  0.68521645  0.57796736  0.19419217     0.85600
O2247       O  0.70247382  0.58590153  0.17302507    -0.65100
Ni2248     Ni  0.69951547  0.58994449  0.06738395     1.27400
Ni2249     Ni  0.64194886  0.53537204  0.10161531     1.26100
H2250       H  0.66717173  0.52701612  0.14094117     0.40100
O2251       O  0.56686770  0.91067268  0.80972021    -0.79900
O2252       O  0.58096488  0.94771952  0.93637049    -0.64500
O2253       O  0.59556702  0.93816990  0.86027906    -1.11200
C2254       C  0.57411296  0.83853213  0.89259383     1.07000
O2255       O  0.61082504  0.92926498  0.95047681    -0.77800
O2256       O  0.63228747  0.90108041  0.91780532    -0.65300
Ni2257     Ni  0.57385240  0.94580502  0.83134045     1.34900
C2258       C  0.64437640  0.90949456  0.89394960     0.85800
O2259       O  0.59657210  0.98514878  0.89258959    -0.78300
O2260       O  0.57910491  0.98251978  0.84898372    -0.88600
C2261       C  0.59999681  0.94728665  0.95372087     0.85300
O2262       O  0.53417135  0.92139754  0.84720827    -0.66800
O2263       O  0.57650905  0.84915109  0.91711012    -0.86100
C2264       C  0.52512227  0.91962107  0.87206597     0.86200
C2265       C  0.58902439  0.99638553  0.87208353     1.07700
H2266       H  0.55468522  0.88865070  0.90313969     0.39500
O2267       O  0.57674226  0.90131037  0.90171254    -1.08700
O2268       O  0.62991550  0.91103424  0.87263155    -0.65400
Ni2269     Ni  0.58716725  0.89654031  0.86483269     1.26300
O2270       O  0.54365886  0.92982066  0.89264400    -0.65600
O2271       O  0.57817570  0.85467605  0.87057559    -0.77900
C2272       C  0.58213870  0.89676099  0.80694385     0.85600
O2273       O  0.59679880  0.89341069  0.82706753    -0.65100
Ni2274     Ni  0.59286911  0.88962089  0.93248549     1.27400
Ni2275     Ni  0.58688427  0.94332817  0.89787743     1.26100
H2276       H  0.61728926  0.95161677  0.85707786     0.40100
O2277       O  0.57382619  0.64851019  0.80886749    -0.79900
O2278       O  0.54204449  0.62407789  0.93665632    -0.64500
O2279       O  0.55009093  0.65132936  0.86093202    -1.11200
C2280       C  0.65061108  0.72614563  0.89145188     1.07000
O2281       O  0.56144595  0.67155914  0.95200154    -0.77800
O2282       O  0.58508212  0.72040876  0.91735627    -0.65300
Ni2283     Ni  0.53934639  0.62218504  0.83170883     1.34900
C2284       C  0.57862238  0.72604780  0.89313622     0.85800
O2285       O  0.50312490  0.60552760  0.89446717    -0.78300
O2286       O  0.50316374  0.59180537  0.85040070    -0.88600
C2287       C  0.54408020  0.64264698  0.95528866     0.85300
O2288       O  0.56247635  0.60459709  0.84608510    -0.66800
O2289       O  0.63924573  0.71993408  0.91584073    -0.86100
C2290       C  0.56535288  0.59670364  0.87059644     0.86200
C2291       C  0.99065582  0.58741668  0.87412898     1.07700
H2292       H  0.59978702  0.65665452  0.90350816     0.39500
O2293       O  0.58766985  0.66677875  0.90178339    -1.08700
O2294       O  0.58041365  0.71264701  0.87152831    -0.65400
Ni2295     Ni  0.59265061  0.68236539  0.86458048     1.26300
O2296       O  0.55730702  0.60558746  0.89200174    -0.65600
O2297       O  0.63518137  0.71297720  0.86959515    -0.77900
C2298       C  0.59170972  0.67736843  0.80672784     0.85600
O2299       O  0.59667501  0.69559920  0.82664457    -0.65100
Ni2300     Ni  0.59967925  0.69447579  0.93216372     1.27400
Ni2301     Ni  0.54539598  0.63625325  0.89855760     1.26100
H2302       H  0.53765353  0.66103876  0.85853151     0.40100
O2303       O  0.92047781  0.56801941  0.19353819    -0.79900
O2304       O  0.95964957  0.57889588  0.06667151    -0.64500
O2305       O  0.94831434  0.59403519  0.14229230    -1.11200
C2306       C  0.85148797  0.57751256  0.10675733     1.07000
O2307       O  0.94346166  0.61033909  0.05138474    -0.77800
O2308       O  0.91680404  0.63406248  0.08322933    -0.65300
Ni2309     Ni  0.95302596  0.57010383  0.17116563     1.34900
C2310       C  0.92433597  0.64593605  0.10720888     0.85800
O2311       O  0.99508497  0.59281341  0.11161768    -0.78300
O2312       O  0.98729311  0.56995946  0.15334049    -0.88600
C2313       C  0.96043974  0.59822619  0.04885660     0.85300
O2314       O  0.92441215  0.53187445  0.15505037    -0.66800
O2315       O  0.86293987  0.58020439  0.08256538    -0.86100
C2316       C  0.92499034  0.52260101  0.13076790     0.86200
C2317       C  0.50331808  0.58139700  0.13148555     1.07700
H2318       H  0.89964158  0.55491800  0.09804781     0.39500
O2319       O  0.91302345  0.57691404  0.09970768    -1.08700
O2320       O  0.92419569  0.63085834  0.12876827    -0.65400
Ni2321     Ni  0.90753564  0.58754614  0.13629565     1.26300
O2322       O  0.93857743  0.54124487  0.11064277    -0.65600
O2323       O  0.86659634  0.58049372  0.12919822    -0.77900
C2324       C  0.90620536  0.58306655  0.19461330     0.85600
O2325       O  0.90322849  0.59709599  0.17371881    -0.65100
Ni2326     Ni  0.90360169  0.59437671  0.06840873     1.27400
Ni2327     Ni  0.95419141  0.58507270  0.10494238     1.26100
H2328       H  0.96243710  0.61554754  0.14593174     0.40100
C2329       C  0.99028113  0.58913220  0.01166552     0.24600
C2330       C  0.98298396  0.60914132  0.02580454    -0.23500
C2331       C  0.49696184  0.64023808  0.01731612     0.19500
C2332       C  0.51748841  0.65111655  0.99514705     0.24600
C2333       C  0.52412513  0.63103551  0.98026604    -0.23400
C2334       C  0.01030690  0.59985297  0.98881238     0.19500
F2335       F  0.01589787  0.57965081  0.97494156    -0.13400
F2336       F  0.97701426  0.55893764  0.01915545    -0.15700
F2337       F  0.52987751  0.68125453  0.98763338    -0.15700
F2338       F  0.49075447  0.66038218  0.03052916    -0.13400
C2339       C  0.55926559  0.78695791  0.91383472     0.24600
C2340       C  0.56818690  0.80631779  0.89014322    -0.23500
C2341       C  0.57503889  0.79577602  0.86554501     0.19500
C2342       C  0.57542596  0.76784156  0.86553666     0.24600
C2343       C  0.57021232  0.75062715  0.89037302    -0.23400
C2344       C  0.56049421  0.75971234  0.91399889     0.19500
F2345       F  0.55337735  0.74287113  0.93793354    -0.13400
F2346       F  0.55089815  0.79509860  0.93764436    -0.15700
F2347       F  0.58297977  0.75888046  0.84172427    -0.15700
F2348       F  0.58364238  0.81343014  0.84206098    -0.13400
C2349       C  0.57834808  0.53248318  0.89808648     0.24600
C2350       C  0.59068331  0.52644998  0.87436835    -0.23500
C2351       C  0.59850979  0.54641904  0.85128140     0.19500
C2352       C  0.59270915  0.57092618  0.85125257     0.24600
C2353       C  0.57739349  0.57511246  0.87372658    -0.23400
C2354       C  0.57100128  0.55614590  0.89753696     0.19500
F2355       F  0.55550620  0.55879342  0.91937103    -0.13400
F2356       F  0.56626671  0.01103333  0.92018105    -0.15700
F2357       F  0.60078622  0.58965891  0.82846392    -0.15700
F2358       F  0.61054026  0.54139753  0.82807424    -0.13400
C2359       C  0.59349837  0.97958600  0.99002182     0.24600
C2360       C  0.61200728  0.96971578  0.97686433    -0.23500
C2361       C  0.64275521  0.98194031  0.98567378     0.19500
C2362       C  0.65504672  0.50310274  0.00756485     0.24600
C2363       C  0.63658573  0.51316043  0.02066671    -0.23400
C2364       C  0.60532490  0.00071506  0.01195683     0.19500
F2365       F  0.58812506  0.51198087  0.02247751    -0.13400
F2366       F  0.56369875  0.96815700  0.98218487    -0.15700
F2367       F  0.68441388  0.51311282  0.01614015    -0.15700
F2368       F  0.66155186  0.97341695  0.97320332    -0.13400
C2369       C  0.57562307  0.58074642  0.15290173     0.24600
C2370       C  0.58198099  0.56852465  0.12916773    -0.23500
C2371       C  0.56448718  0.56465124  0.10475618     0.19500
C2372       C  0.53953563  0.57007849  0.10500028     0.24600
C2373       C  0.53209956  0.58014913  0.12940026    -0.23400
C2374       C  0.55081507  0.58608857  0.15305904     0.19500
F2375       F  0.54455861  0.59637876  0.17676996    -0.13400
F2376       F  0.59283485  0.58679919  0.17646549    -0.15700
F2377       F  0.52130192  0.56325419  0.08205322    -0.15700
F2378       F  0.57049993  0.55425769  0.08099299    -0.13400
C2379       C  0.77025855  0.55678478  0.08539641     0.24600
C2380       C  0.76036130  0.56657790  0.10838989    -0.23500
C2381       C  0.77921027  0.57669632  0.13229884     0.19500
C2382       C  0.80834467  0.57910855  0.13236577     0.24600
C2383       C  0.81919655  0.57136639  0.10848245    -0.23400
C2384       C  0.79940071  0.55958780  0.08524538     0.19500
F2385       F  0.80853339  0.55165985  0.06177501    -0.13400
F2386       F  0.75205630  0.54540750  0.06249083    -0.15700
F2387       F  0.82663899  0.59112920  0.15511907    -0.15700
F2388       F  0.77049792  0.58650253  0.15488623    -0.13400
C2389       C  0.51244576  0.92673672  0.10020480     0.24600
C2390       C  0.00076423  0.90557649  0.12252980    -0.23500
C2391       C  0.52143752  0.90618263  0.14305200     0.19500
C2392       C  0.55227468  0.92948233  0.14288695     0.24600
C2393       C  0.56335671  0.95206690  0.12175231    -0.23400
C2394       C  0.54357011  0.94964959  0.09972027     0.19500
F2395       F  0.55351748  0.97151287  0.07933870    -0.13400
F2396       F  0.99325428  0.92726220  0.08028677    -0.15700
F2397       F  0.57093805  0.93103658  0.16428787    -0.15700
F2398       F  0.51145540  0.88511165  0.16413387    -0.13400
C2399       C  0.80445186  0.71080018  0.13355428     0.24600
C2400       C  0.81225799  0.73082364  0.11039988    -0.23500
C2401       C  0.79096602  0.72288689  0.08839512     0.19500
C2402       C  0.76377984  0.69442375  0.08832201     0.24600
C2403       C  0.75678433  0.67342516  0.11062249    -0.23400
C2404       C  0.77679338  0.68254341  0.13382777     0.19500
F2405       F  0.77095916  0.66308573  0.15581095    -0.13400
F2406       F  0.82477925  0.71721712  0.15481848    -0.15700
F2407       F  0.74487943  0.68694224  0.06579064    -0.15700
F2408       F  0.79711533  0.74222445  0.06626391    -0.13400
C2409       C  0.91668530  0.94826254  0.10353521     0.24600
C2410       C  0.90102374  0.92787362  0.12560445    -0.23500
C2411       C  0.88852101  0.93752019  0.14667487     0.19500
C2412       C  0.89343601  0.96768599  0.14664526     0.24600
C2413       C  0.91216384  0.98920058  0.12618585    -0.23400
C2414       C  0.92242855  0.97866098  0.10389862     0.19500
F2415       F  0.93709947  0.49687578  0.08264841    -0.13400
F2416       F  0.92933191  0.93980868  0.08303663    -0.15700
F2417       F  0.88112789  0.97619428  0.16745065    -0.15700
F2418       F  0.87264076  0.91813440  0.16794985    -0.13400
C2419       C  0.92335066  0.68799504  0.13446922     0.24600
C2420       C  0.93072956  0.67807836  0.10989836    -0.23500
C2421       C  0.93820435  0.69687785  0.08598780     0.19500
C2422       C  0.93398110  0.72240234  0.08531818     0.24600
C2423       C  0.92344010  0.73066803  0.10898962    -0.23400
C2424       C  0.91993040  0.71421143  0.13407906     0.19500
F2425       F  0.91121850  0.72210921  0.15783412    -0.13400
F2426       F  0.91705236  0.67108159  0.15831682    -0.15700
F2427       F  0.93912403  0.73823513  0.06095270    -0.15700
F2428       F  0.94799341  0.68954189  0.06255398    -0.13400
C2429       C  0.70307442  0.75859622  0.91193355     0.24600
C2430       C  0.68296723  0.75135468  0.88897499    -0.23500
C2431       C  0.69265295  0.77131419  0.86570553     0.19500
C2432       C  0.72025450  0.79950480  0.86671989     0.24600
C2433       C  0.73874807  0.80808159  0.89090484    -0.23400
C2434       C  0.73074173  0.78654897  0.91280395     0.19500
F2435       F  0.74906672  0.79310606  0.93566153    -0.13400
F2436       F  0.69517296  0.73930793  0.93430738    -0.15700
F2437       F  0.72734117  0.81956101  0.84503371    -0.15700
F2438       F  0.67415715  0.76504690  0.84300733    -0.13400
C2439       C  0.91646563  0.51678096  0.85563158     0.24600
C2440       C  0.91307895  0.99699002  0.87685462    -0.23500
C2441       C  0.93106121  0.00966030  0.90100366     0.19500
C2442       C  0.95702283  0.53913773  0.90096259     0.24600
C2443       C  0.96127923  0.55853175  0.87792687    -0.23400
C2444       C  0.94023834  0.54729637  0.85570467     0.19500
F2445       F  0.94388134  0.56542040  0.83312300    -0.13400
F2446       F  0.89735632  0.50662806  0.83318978    -0.15700
F2447       F  0.47768028  0.54905190  0.92226507    -0.15700
F2448       F  0.92742184  0.99161690  0.92362871    -0.13400
C2449       C  0.72558945  0.93004141  0.91255841     0.24600
C2450       C  0.73250366  0.91571988  0.89097075    -0.23500
C2451       C  0.71213917  0.90376136  0.86818691     0.19500
C2452       C  0.68424392  0.90382944  0.86815750     0.24600
C2453       C  0.67628834  0.91588259  0.89086972    -0.23400
C2454       C  0.69770415  0.93004068  0.91253117     0.19500
F2455       F  0.69116636  0.94299743  0.93417327    -0.13400
F2456       F  0.74538589  0.94314163  0.93421569    -0.15700
F2457       F  0.66388725  0.88962314  0.84710002    -0.15700
F2458       F  0.71793162  0.88962026  0.84704993    -0.13400
C2459       C  0.93985722  0.88243316  0.85716633     0.24600
C2460       C  0.93056257  0.89517589  0.87822536    -0.23500
C2461       C  0.95097638  0.91078501  0.90024810     0.19500
C2462       C  0.98110338  0.91594454  0.89983054     0.24600
C2463       C  0.49167641  0.90682313  0.87671979    -0.23400
C2464       C  0.97018903  0.88842098  0.85622954     0.19500
F2465       F  0.47879063  0.87724917  0.83459362    -0.13400
F2466       F  0.91990422  0.86543979  0.83669291    -0.15700
F2467       F  0.00046150  0.93203285  0.92096949    -0.15700
F2468       F  0.94282110  0.92375563  0.92074082    -0.13400
C2469       C  0.84311937  0.84580596  0.98510469     0.24600
C2470       C  0.85795306  0.87760330  0.97922249    -0.23500
C2471       C  0.88460342  0.89740294  0.99438911     0.19500
C2472       C  0.89541461  0.88571724  0.01580846     0.24600
C2473       C  0.88056737  0.85372774  0.02173961    -0.23400
C2474       C  0.85469418  0.83392289  0.00545464     0.19500
F2475       F  0.84018902  0.80286951  0.00919270    -0.13400
F2476       F  0.81759921  0.82591687  0.97058053    -0.15700
F2477       F  0.92044443  0.90584572  0.03069580    -0.15700
F2478       F  0.89970688  0.92819774  0.98904885    -0.13400
C2479       C  0.87554305  0.55592117  0.26550787     0.24600
C2480       C  0.89148871  0.58372374  0.28022254    -0.23500
C2481       C  0.90502342  0.61179368  0.26537247     0.19500
C2482       C  0.90586130  0.61188689  0.23619899     0.24600
C2483       C  0.89358011  0.58390577  0.22183286    -0.23400
C2484       C  0.87657480  0.55603379  0.23648696     0.19500
F2485       F  0.86427028  0.52873951  0.22286938    -0.13400
F2486       F  0.86256999  0.52846841  0.27932629    -0.15700
F2487       F  0.92263852  0.63903033  0.22239319    -0.15700
F2488       F  0.92162462  0.63880266  0.27906933    -0.13400
C2489       C  0.60227554  0.70725657  0.73386136     0.24600
C2490       C  0.61232670  0.68834605  0.72163509    -0.23500
C2491       C  0.62379665  0.67335158  0.73896499     0.19500
C2492       C  0.62081117  0.67332653  0.76773663     0.24600
C2493       C  0.60672261  0.68861451  0.77969154    -0.23400
C2494       C  0.59960612  0.70745539  0.76292073     0.19500
F2495       F  0.58620762  0.72257744  0.77429253    -0.13400
F2496       F  0.59120925  0.72213537  0.71778010    -0.15700
F2497       F  0.62832646  0.65535147  0.78371421    -0.15700
F2498       F  0.63468605  0.65576449  0.72791270    -0.13400
C2499       C  0.51344471  0.64649150  0.51309473     0.24600
C2500       C  0.52429118  0.62743299  0.52420868    -0.23500
C2501       C  0.01288147  0.59770577  0.51295081     0.19500
C2502       C  0.99220316  0.58805912  0.49022800     0.24600
C2503       C  0.98155465  0.60743991  0.47919078    -0.23400
C2504       C  0.49260257  0.63674839  0.49094206     0.19500
F2505       F  0.48389962  0.65664191  0.48045942    -0.13400
F2506       F  0.52240644  0.67459419  0.52415983    -0.15700
F2507       F  0.98237515  0.55971152  0.47930923    -0.15700
F2508       F  0.02186209  0.57811997  0.52370973    -0.13400
C2509       C  0.55535990  0.87039979  0.73461201     0.24600
C2510       C  0.58363389  0.88154283  0.72083910    -0.23500
C2511       C  0.61028563  0.88965002  0.73672179     0.19500
C2512       C  0.60931145  0.89072825  0.76591043     0.24600
C2513       C  0.58182138  0.88438082  0.77913684    -0.23400
C2514       C  0.55452849  0.87207691  0.76345276     0.19500
F2515       F  0.52739578  0.86444643  0.77585992    -0.13400
F2516       F  0.52888825  0.86103849  0.71992480    -0.15700
F2517       F  0.63580333  0.90143605  0.78078420    -0.15700
F2518       F  0.63779943  0.90024536  0.72398877    -0.13400
C2519       C  0.56174304  0.78340298  0.58938758     0.24600
C2520       C  0.57759231  0.80487022  0.61054043    -0.23500
C2521       C  0.59078294  0.79660548  0.63264478     0.19500
C2522       C  0.59048266  0.76850039  0.63226004     0.24600
C2523       C  0.57738392  0.74843137  0.60959900    -0.23400
C2524       C  0.56199285  0.75557052  0.58870563     0.19500
F2525       F  0.54803110  0.73604597  0.56718072    -0.13400
F2526       F  0.54684265  0.78984920  0.56888392    -0.15700
F2527       F  0.60552291  0.76227444  0.65278529    -0.15700
F2528       F  0.60626780  0.81674846  0.65342647    -0.13400
C2529       C  0.58915729  0.53094916  0.60133186     0.24600
C2530       C  0.60332166  0.52540040  0.62445495    -0.23500
C2531       C  0.61526801  0.54690811  0.64597546     0.19500
C2532       C  0.61084841  0.57221548  0.64571050     0.24600
C2533       C  0.59377692  0.57614787  0.62411014    -0.23400
C2534       C  0.58456157  0.55632101  0.60107735     0.19500
F2535       F  0.56855401  0.55963543  0.57958185    -0.13400
F2536       F  0.57680934  0.51015584  0.58041940    -0.15700
F2537       F  0.62141947  0.59159889  0.66774802    -0.15700
F2538       F  0.62947328  0.54233022  0.66827816    -0.13400
C2539       C  0.70736288  0.57298909  0.26760831     0.24600
C2540       C  0.69625010  0.59052175  0.28072149    -0.23500
C2541       C  0.68907256  0.60966857  0.26439283     0.19500
C2542       C  0.69004323  0.60904281  0.23536430     0.24600
C2543       C  0.69778460  0.58895016  0.22218137    -0.23400
C2544       C  0.70795300  0.57209346  0.23841942     0.19500
F2545       F  0.71488054  0.55201616  0.22607212    -0.13400
F2546       F  0.71398850  0.55390523  0.28282699    -0.15700
F2547       F  0.68018366  0.62554911  0.22007064    -0.15700
F2548       F  0.67852827  0.62699010  0.27655344    -0.13400
C2549       C  0.59791303  0.97991043  0.51158448     0.24600
C2550       C  0.61641448  0.96827757  0.52247776    -0.23500
C2551       C  0.64623532  0.97979912  0.51172584     0.19500
C2552       C  0.65707150  0.50167555  0.49032506     0.24600
C2553       C  0.63856110  0.51356362  0.48000877    -0.23400
C2554       C  0.60886846  0.00221863  0.49023074     0.19500
F2555       F  0.59090562  0.01382673  0.48103342    -0.13400
F2556       F  0.56908313  0.96950962  0.52138493    -0.15700
F2557       F  0.68512831  0.51072915  0.47921214    -0.15700
F2558       F  0.66621094  0.47042540  0.52204409    -0.13400
C2559       C  0.55563259  0.60204184  0.35528543     0.24600
C2560       C  0.53402266  0.59072176  0.37678032    -0.23500
C2561       C  0.53843226  0.57548783  0.39961748     0.19500
C2562       C  0.56251817  0.56888739  0.39958111     0.24600
C2563       C  0.58329222  0.57864730  0.37718067    -0.23400
C2564       C  0.58049997  0.59676023  0.35581043     0.19500
F2565       F  0.60097235  0.60805045  0.33460023    -0.13400
F2566       F  0.55189960  0.61711024  0.33317239    -0.15700
F2567       F  0.56367012  0.55053807  0.42010548    -0.15700
F2568       F  0.01766452  0.56435080  0.42063281    -0.13400
C2569       C  0.76900396  0.55511549  0.41933010     0.24600
C2570       C  0.75792685  0.56345256  0.39564547    -0.23500
C2571       C  0.77476553  0.57054118  0.37075754     0.19500
C2572       C  0.80346175  0.57209800  0.37031332     0.24600
C2573       C  0.81577370  0.56645379  0.39476646    -0.23400
C2574       C  0.79750438  0.55643729  0.41885199     0.19500
F2575       F  0.80770978  0.54895403  0.44238145    -0.13400
F2576       F  0.75278728  0.54684722  0.44338860    -0.15700
F2577       F  0.82009923  0.58147385  0.34649898    -0.15700
F2578       F  0.76482559  0.57869270  0.34745450    -0.13400
C2579       C  0.93886262  0.81426916  0.26534262     0.24600
C2580       C  0.91105523  0.79995309  0.28001033    -0.23500
C2581       C  0.88384168  0.77955366  0.26568636     0.19500
C2582       C  0.88386675  0.77773330  0.23641081     0.24600
C2583       C  0.91124330  0.79589138  0.22153151    -0.23400
C2584       C  0.93902013  0.81150724  0.23652104     0.19500
F2585       F  0.96625446  0.82644023  0.22289855    -0.13400
F2586       F  0.96576992  0.83277043  0.27873914    -0.15700
F2587       F  0.85687967  0.76066444  0.22264264    -0.15700
F2588       F  0.85687149  0.76389636  0.27960511    -0.13400
C2589       C  0.92565460  0.98109093  0.39836461     0.24600
C2590       C  0.91364801  0.99233103  0.37761402    -0.23500
C2591       C  0.89196428  0.97132828  0.35853413     0.19500
C2592       C  0.88546223  0.94065174  0.35806627     0.24600
C2593       C  0.89948001  0.93012756  0.37742565    -0.23400
C2594       C  0.91839670  0.95020920  0.39839707     0.19500
F2595       F  0.93255855  0.94082848  0.41720832    -0.13400
F2596       F  0.94669737  0.00049620  0.41704780    -0.15700
F2597       F  0.86648702  0.92160745  0.33800099    -0.15700
F2598       F  0.87888293  0.48117580  0.33888013    -0.13400
C2599       C  0.91204343  0.71298456  0.36807658     0.24600
C2600       C  0.92287837  0.73276429  0.39116234    -0.23500
C2601       C  0.93730963  0.72587902  0.41314350     0.19500
C2602       C  0.93875647  0.69865425  0.41310438     0.24600
C2603       C  0.92523215  0.67730815  0.39134487    -0.23400
C2604       C  0.91300889  0.68540262  0.36823862     0.19500
F2605       F  0.89975412  0.66560307  0.34675972    -0.13400
F2606       F  0.89829290  0.71905651  0.34628692    -0.15700
F2607       F  0.95247463  0.69267147  0.43496017    -0.15700
F2608       F  0.94926510  0.74511844  0.43517934    -0.13400
C2609       C  0.51839596  0.91584326  0.35350825     0.24600
C2610       C  0.99893045  0.91175105  0.37602068    -0.23500
C2611       C  0.51171631  0.93002712  0.39989896     0.19500
C2612       C  0.54255144  0.95377658  0.40000103     0.24600
C2613       C  0.56086072  0.95977217  0.37616330    -0.23400
C2614       C  0.54876525  0.93988676  0.35337059     0.19500
F2615       F  0.56605289  0.94446134  0.33036867    -0.13400
F2616       F  0.50767059  0.89720190  0.33098329    -0.15700
F2617       F  0.55364238  0.97251777  0.42244978    -0.15700
F2618       F  0.99392078  0.92658369  0.42226365    -0.13400
C2619       C  0.79208650  0.72581091  0.40882194     0.24600
C2620       C  0.81519508  0.73226776  0.38931765    -0.23500
C2621       C  0.81017226  0.71013955  0.36900030     0.19500
C2622       C  0.78338832  0.68123888  0.36952846     0.24600
C2623       C  0.76108012  0.67417268  0.39019404    -0.23400
C2624       C  0.76515799  0.69720188  0.40908119     0.19500
F2625       F  0.74349283  0.69167483  0.42848242    -0.13400
F2626       F  0.79622271  0.74681906  0.42847930    -0.15700
F2627       F  0.78055104  0.65938860  0.35130633    -0.15700
F2628       F  0.83239028  0.71531614  0.35029501    -0.13400
C2629       C  0.78817616  0.87715409  0.73619458     0.24600
C2630       C  0.80668036  0.90445342  0.72107479    -0.23500
C2631       C  0.82057550  0.93271802  0.73510976     0.19500
C2632       C  0.81892395  0.93352718  0.76398514     0.24600
C2633       C  0.80351936  0.90605518  0.77963589    -0.23400
C2634       C  0.78643907  0.87795915  0.76541707     0.19500
F2635       F  0.77109264  0.85104509  0.77985800    -0.13400
F2636       F  0.77494683  0.84950213  0.72317217    -0.15700
F2637       F  0.83499941  0.96113661  0.77691519    -0.15700
F2638       F  0.83839650  0.95948210  0.72105046    -0.13400
C2639       C  0.73767629  0.78965722  0.58713998     0.24600
C2640       C  0.74377550  0.81132985  0.60811998    -0.23500
C2641       C  0.72270850  0.80366600  0.62992309     0.19500
C2642       C  0.69535237  0.77536345  0.63012177     0.24600
C2643       C  0.68812718  0.75447784  0.60806612    -0.23400
C2644       C  0.70996726  0.76160733  0.58692941     0.19500
F2645       F  0.70418399  0.74181778  0.56563830    -0.13400
F2646       F  0.75822130  0.79606832  0.56639525    -0.15700
F2647       F  0.67487484  0.76960011  0.65078234    -0.15700
F2648       F  0.72727754  0.82468957  0.64974217    -0.13400
C2649       C  0.92984257  0.01355461  0.65331660     0.24600
C2650       C  0.92254722  0.99492623  0.62941882    -0.23500
C2651       C  0.93975145  0.50627850  0.60525764     0.19500
C2652       C  0.96521336  0.53610569  0.60524440     0.24600
C2653       C  0.97421464  0.55360729  0.62977291    -0.23400
C2654       C  0.95601273  0.54178415  0.65364229     0.19500
F2655       F  0.46353234  0.55850350  0.67737258    -0.13400
F2656       F  0.91352937  0.00250301  0.67718427    -0.15700
F2657       F  0.98242655  0.54683872  0.58184376    -0.15700
F2658       F  0.93309930  0.48927420  0.58176322    -0.13400
C2659       C  0.73433143  0.93255798  0.58684109     0.24600
C2660       C  0.74350789  0.92103961  0.60972299    -0.23500
C2661       C  0.72538017  0.91212998  0.63397385     0.19500
C2662       C  0.69691700  0.91101953  0.63400308     0.24600
C2663       C  0.68626126  0.91914964  0.60993601    -0.23400
C2664       C  0.70604330  0.93166657  0.58699180     0.19500
F2665       F  0.69731765  0.94165155  0.56405082    -0.13400
F2666       F  0.75203833  0.94341999  0.56372277    -0.15700
F2667       F  0.67867847  0.89928888  0.65670312    -0.15700
F2668       F  0.73386221  0.90205206  0.65698155    -0.13400
C2669       C  0.98684744  0.91270226  0.60112676     0.24600
C2670       C  0.49936504  0.90655117  0.62503118    -0.23500
C2671       C  0.98014198  0.89143407  0.64787580     0.19500
C2672       C  0.94973878  0.88497996  0.64773566     0.24600
C2673       C  0.93802134  0.89396816  0.62501346    -0.23400
C2674       C  0.95645730  0.90678502  0.60120285     0.19500
F2675       F  0.94621398  0.91638049  0.57906473    -0.13400
F2676       F  0.50480450  0.92713475  0.57874928    -0.15700
F2677       F  0.93223587  0.87147579  0.67057928    -0.15700
F2678       F  0.99119462  0.88430579  0.67107292    -0.13400
C2679       C  0.84418831  0.84932342  0.51176459     0.24600
C2680       C  0.86422928  0.87818904  0.52378841    -0.23500
C2681       C  0.89460581  0.89498613  0.51387907     0.19500
C2682       C  0.90435255  0.88360618  0.49194359     0.24600
C2683       C  0.88405959  0.85499606  0.47971463    -0.23400
C2684       C  0.85393879  0.83799058  0.49003990     0.19500
F2685       F  0.83335274  0.81067165  0.47846198    -0.13400
F2686       F  0.81499626  0.83163159  0.52115476    -0.15700
F2687       F  0.93374808  0.90046743  0.48286901    -0.15700
F2688       F  0.91475360  0.92270945  0.52501808    -0.13400
loop_ 
_geom_bond_atom_site_label_1 
_geom_bond_atom_site_label_2 
_geom_bond_distance 
_geom_bond_site_symmetry_2 
_ccdc_geom_bond_type 
O1           Ni7   1.933       .  S
O1           C22   1.273       .  A
O2          Ni25   1.917       .  S
O2           C11   1.267       .  A
O3           Ni7   1.895       .  S
O3          Ni25   1.901       .  S
O3          Ni19   1.899       .  S
O3           H26   0.965       .  S
C4           O21   1.270       .  A
C4           O13   1.274       .  A
C4          C657   1.475       .  S
O5          Ni24   1.920       .  S
O5           C11   1.269       .  A
O6          Ni24   1.889       .  S
O6            C8   1.266       .  A
Ni7          O10   1.919       .  S
Ni7          O12   1.901       .  S
C8           O18   1.276       .  A
C8          C634   1.484       .  S
O9          Ni25   1.922       .  S
O9           C15   1.279       .  A
O10          C15   1.279       .  A
C11         C614   1.473       .  S
O12          C14   1.267       .  A
O13         Ni24   1.916       .  S
C14          O20   1.269       .  A
C14         C624   1.470       .  S
C15         C644   1.486       .  S
H16          O17   0.976       .  S
O17         Ni25   1.915       .  S
O17         Ni19   1.914       .  S
O17         Ni24   1.899       .  S
O18         Ni19   1.939       .  S
Ni19         O23   1.909       .  S
Ni19         O21   1.908       .  S
O20         Ni25   1.918       .  S
C22          O23   1.269       .  A
C22         C664   1.486       .  S
O27         Ni33   1.938       .  S
O27          C48   1.274       .  A
O28         Ni51   1.921       .  S
O28          C37   1.267       .  A
O29         Ni33   1.897       .  S
O29         Ni51   1.910       .  S
O29         Ni45   1.904       .  S
O29          H52   0.966       .  S
C30          O47   1.272       .  A
C30          O39   1.275       .  A
C30         C577   1.477       .  S
O31         Ni50   1.929       .  S
O31          C37   1.271       .  A
O32         Ni50   1.900       .  S
O32          C34   1.269       .  A
Ni33         O36   1.925       .  S
Ni33         O38   1.903       .  S
C34          O44   1.271       .  A
C34         C594   1.484       .  S
O35         Ni51   1.917       .  S
O35          C41   1.276       .  A
O36          C41   1.279       .  A
C37         C564   1.482       .  S
O38          C40   1.269       .  A
O39         Ni50   1.928       .  S
C40          O46   1.272       .  A
C40         C604   1.478       .  S
C41         C584   1.482       .  S
H42          O43   0.966       .  S
O43         Ni51   1.918       .  S
O43         Ni45   1.917       .  S
O43         Ni50   1.909       .  S
O44         Ni45   1.931       .  S
Ni45         O49   1.909       .  S
Ni45         O47   1.911       .  S
O46         Ni51   1.928       .  S
C48          O49   1.267       .  A
C48         C667   1.490       .  S
O53         Ni59   1.936       .  S
O53          C74   1.275       .  A
O54         Ni77   1.923       .  S
O54          C63   1.270       .  A
O55         Ni59   1.893       .  S
O55         Ni77   1.901       .  S
O55         Ni71   1.906       .  S
O55          H78   0.966       .  S
C56          O73   1.276       .  A
C56          O65   1.279       .  A
C56         C597   1.478       .  S
O57         Ni76   1.929       .  S
O57          C63   1.270       .  A
O58         Ni76   1.896       .  S
O58          C60   1.267       .  A
Ni59         O62   1.924       .  S
Ni59         O64   1.909       .  S
C60          O70   1.273       .  A
C60         C547   1.482       .  S
O61         Ni77   1.926       .  S
O61          C67   1.280       .  A
O62          C67   1.280       .  A
C63         C524   1.479       .  S
O64          C66   1.269       .  A
O65        Ni748   1.926       .  S
C66          O72   1.272       .  A
C66         C554   1.483       .  S
C67         C607   1.484       .  S
H68          O69   0.966       .  S
O69         Ni77   1.910       .  S
O69         Ni71   1.907       .  S
O69         Ni76   1.896       .  S
O70         Ni71   1.936       .  S
Ni71         O75   1.907       .  S
Ni71        O745   1.911   1_545  S
O72         Ni77   1.928       .  S
O73        Ni743   1.913       .  S
C74          O75   1.268       .  A
C74         C537   1.486       .  S
Ni76        O737   1.931       .  S
O79         Ni85   1.940       .  S
O79         C100   1.274       .  A
O80        Ni103   1.928       .  S
O80          C89   1.271       .  A
O81         Ni85   1.889       .  S
O81        Ni103   1.906       .  S
O81         Ni97   1.893       .  S
O81         H104   0.966       .  S
C82          O99   1.270       .  A
C82          O91   1.277       .  A
C82        C1186   1.464       .  S
O83        Ni102   1.917       .  S
O83          C89   1.267       .  A
O84        Ni102   1.885       .  S
O84          C86   1.264       .  A
Ni85         O88   1.919       .  S
Ni85         O90   1.897       .  S
C86          O96   1.271       .  A
C86         C654   1.476       .  S
O87        Ni103   1.912       .  S
O87          C93   1.277       .  A
O88          C93   1.279       .  A
C89         C494   1.477       .  S
O90          C92   1.268       .  A
O91        Ni102   1.915       .  S
C92          O98   1.274       .  A
C92         C647   1.481       .  S
C93         C504   1.472       .  S
H94          O95   0.966       .  S
O95        Ni103   1.905       .  S
O95         Ni97   1.905       .  S
O95        Ni102   1.894       .  S
O96         Ni97   1.930       .  S
Ni97        O101   1.904       .  S
Ni97         O99   1.896       .  S
O98        Ni103   1.932       .  S
C100        O101   1.266       .  A
C100        C534   1.489       .  S
O105       Ni111   1.940       .  S
O105        C126   1.276       .  A
O106       Ni129   1.924       .  S
O106        C115   1.267       .  A
O107       Ni111   1.901       .  S
O107       Ni129   1.909       .  S
O107       Ni123   1.911       .  S
O107        H130   0.966       .  S
C108       O1469   1.275       .  A
C108       O1461   1.278       .  A
C108        C637   1.480       .  S
O109       Ni128   1.922       .  S
O109        C115   1.267       .  A
O110       Ni128   1.886       .  S
O110        C112   1.264       .  A
Ni111       O114   1.931       .  S
Ni111       O116   1.913       .  S
C112        O122   1.269       .  A
C112        C517   1.473       .  S
O113       Ni129   1.909       .  S
O113        C119   1.275       .  A
O114        C119   1.280       .  A
C115        C474   1.481       .  S
O116        C118   1.270       .  A
O117       Ni128   1.926       .  S
O117       C1452   1.278       .  A
C118        O124   1.269       .  A
C118        C507   1.473       .  S
C119        C627   1.480       .  S
H120        O121   0.966       .  S
O121       Ni129   1.905       .  S
O121       Ni123   1.906       .  S
O121       Ni128   1.898       .  S
O122       Ni123   1.922       .  S
Ni123       O127   1.909       .  S
Ni123       O125   1.910       .  S
O124       Ni129   1.914       .  S
O125       C1452   1.275       .  A
C126        O127   1.266       .  A
C126        C484   1.489       .  S
O131       Ni137   1.942       .  S
O131        C152   1.274       .  A
O132       Ni155   1.923       .  S
O132        C141   1.270       .  A
O133       Ni137   1.902       .  S
O133       Ni155   1.913       .  S
O133       Ni149   1.898       .  S
O133        H156   0.966       .  S
C134       O1495   1.265   1_455  A
C134       O1487   1.273   1_455  A
C134        C544   1.466       .  S
O135       Ni154   1.919       .  S
O135        C141   1.268       .  A
O136       Ni154   1.895       .  S
O136        C138   1.265       .  A
Ni137       O140   1.925       .  S
Ni137       O142   1.901       .  S
C138        O148   1.275       .  A
C138       C1246   1.483   1_545  S
O139       Ni155   1.915       .  S
O139        C145   1.276       .  A
O140        C145   1.279       .  A
C141        C464   1.474       .  S
O142        C144   1.268       .  A
O143       Ni154   1.929       .  S
O143       C1478   1.273       .  A
C144        O150   1.275       .  A
C144        C587   1.487       .  S
C145        C557   1.486       .  S
H146        O147   0.967       .  S
O147       Ni155   1.917       .  S
O147       Ni149   1.922       .  S
O147       Ni154   1.916       .  S
O148       Ni149   1.944       .  S
Ni149       O153   1.912       .  S
Ni149       O151   1.895       .  S
O150       Ni155   1.936       .  S
O151       C1478   1.265       .  A
C152        O153   1.265       .  A
C152        C487   1.494       .  S
O157       Ni163   1.918       .  S
O157        C178   1.267       .  A
O158       Ni181   1.907       .  S
O158        C167   1.267       .  A
O159       Ni163   1.894       .  S
O159       Ni181   1.906       .  S
O159       Ni175   1.910       .  S
O159        H182   0.965       .  S
C160        O177   1.278       .  A
C160        O169   1.280       .  A
C160        C434   1.481       .  S
O161       Ni180   1.945       .  S
O161        C167   1.276       .  A
O162       Ni180   1.911       .  S
O162        C164   1.271       .  A
Ni163       O166   1.919       .  S
Ni163       O168   1.892       .  S
C164        O174   1.269       .  A
C164        C417   1.480       .  S
O165       Ni181   1.910       .  S
O165        C171   1.274       .  A
O166        C171   1.277       .  A
C167        C454   1.485       .  S
O168        C170   1.266       .  A
O169       Ni180   1.927       .  S
C170        O176   1.273       .  A
C170        C424   1.482       .  S
C171        C444   1.472       .  S
H172        O173   0.967       .  S
O173       Ni181   1.904       .  S
O173       Ni175   1.909       .  S
O173       Ni180   1.898       .  S
O174       Ni175   1.919       .  S
Ni175       O179   1.927       .  S
Ni175       O177   1.919       .  S
O176       Ni181   1.936       .  S
C178        O179   1.268       .  A
C178        C617   1.478       .  S
O183       Ni189   1.922       .  S
O183        C204   1.268       .  A
O184       Ni207   1.911       .  S
O184        C193   1.268       .  A
O185       Ni189   1.906       .  S
O185       Ni207   1.913       .  S
O185       Ni201   1.913       .  S
O185        H208   0.966       .  S
C186        O203   1.276       .  A
C186        O195   1.281       .  A
C186        C407   1.487       .  S
O187       Ni206   1.944       .  S
O187        C193   1.276       .  A
O188       Ni206   1.904       .  S
O188        C190   1.269       .  A
Ni189       O192   1.926       .  S
Ni189       O194   1.901       .  S
C190        O200   1.276       .  A
C190        C384   1.486       .  S
O191       Ni207   1.914       .  S
O191        C197   1.275       .  A
O192        C197   1.277       .  A
C193        C457   1.500       .  S
O194        C196   1.266       .  A
O195       Ni206   1.926       .  S
C196        O202   1.272       .  A
C196        C374   1.484       .  S
C197        C394   1.478       .  S
H198        O199   0.966       .  S
O199       Ni207   1.905       .  S
O199       Ni201   1.911       .  S
O199       Ni206   1.893       .  S
O200       Ni201   1.938       .  S
Ni201       O205   1.928       .  S
Ni201       O203   1.917       .  S
O202       Ni207   1.937       .  S
C204        O205   1.269       .  A
C204        C567   1.483       .  S
O209       Ni215   1.918       .  S
O209        C230   1.268       .  A
O210       Ni233   1.903       .  S
O210        C219   1.266       .  A
O211       Ni215   1.909       .  S
O211       Ni233   1.918       .  S
O211       Ni227   1.926       .  S
O211        H234   0.966       .  S
C212        O229   1.280       .  A
C212        O221   1.280       .  A
C212        C387   1.490       .  S
O213       Ni232   1.942       .  S
O213        C219   1.275       .  A
O214       Ni232   1.906       .  S
O214        C216   1.270       .  A
Ni215       O220   1.898       .  S
Ni215       O890   1.923   1_545  S
C216        O226   1.270       .  A
C216        C364   1.480       .  S
O217       Ni905   1.914       .  S
O217        C223   1.269       .  A
O218       Ni887   1.922       .  S
O218        C223   1.271       .  A
C219        C347   1.489       .  S
O220        C222   1.269       .  A
O221       Ni232   1.927       .  S
C222        O228   1.275       .  A
C222        C354   1.489       .  S
C223        C377   1.476       .  S
H224        O225   0.967       .  S
O225       Ni233   1.904       .  S
O225       Ni227   1.904       .  S
O225       Ni232   1.902       .  S
O226       Ni227   1.921       .  S
Ni227       O231   1.918       .  S
Ni227       O229   1.929       .  S
O228       Ni233   1.939       .  S
C230        O231   1.268       .  A
C230        C527   1.470       .  S
Ni233       O889   1.915   1_545  S
O235       Ni241   1.929       .  S
O235        C256   1.272       .  A
O236       Ni259   1.902       .  S
O236        C245   1.267       .  A
O237       Ni241   1.900       .  S
O237       Ni259   1.908       .  S
O237       Ni253   1.914       .  S
O237        H260   0.967       .  S
C238        O255   1.278       .  A
C238        O247   1.279       .  A
C238        C324   1.492       .  S
O239       Ni258   1.932       .  S
O239        C245   1.273       .  A
O240       Ni258   1.907       .  S
O240        C242   1.269       .  A
Ni241       O244   1.924       .  S
Ni241       O246   1.901       .  S
C242        O252   1.270       .  A
C242        C437   1.474       .  S
O243       Ni259   1.913       .  S
O243        C249   1.274       .  A
O244        C249   1.276       .  A
C245        C344   1.481       .  S
O246        C248   1.269       .  A
O247       Ni258   1.921       .  S
C248        O254   1.272       .  A
C248        C447   1.484   1_455  S
C249       C1006   1.476       .  S
H250        O251   0.966       .  S
O251       Ni259   1.908       .  S
O251       Ni253   1.901       .  S
O251       Ni258   1.897       .  S
O252       Ni253   1.920       .  S
Ni253       O257   1.907       .  S
Ni253       O255   1.926       .  S
O254       Ni259   1.934       .  S
C256        O257   1.265       .  A
C256        C497   1.474       .  S
O261       Ni267   1.918       .  S
O261        C282   1.269       .  A
O262       Ni285   1.906       .  S
O262        C271   1.265       .  A
O263       Ni267   1.904       .  S
O263       Ni285   1.921       .  S
O263       Ni279   1.921       .  S
O263        H286   0.966       .  S
C264        O281   1.276       .  A
C264        O273   1.274       .  A
C264        C414   1.485       .  S
O265       Ni284   1.927       .  S
O265        C271   1.271       .  A
O266       Ni284   1.904       .  S
O266        C268   1.270       .  A
Ni267       O270   1.912       .  S
Ni267       O272   1.893       .  S
C268        O278   1.270       .  A
C268        C327   1.486       .  S
O269       Ni285   1.914       .  S
O269       C1619   1.271   1_455  A
O270       C1619   1.271   1_455  A
C271        C317   1.488       .  S
O272        C274   1.268       .  A
O273       Ni284   1.913       .  S
C274        O280   1.271       .  A
C274        C337   1.478       .  S
C275       O1613   1.271       .  A
C275       O1614   1.271       .  A
C275        C427   1.478       .  S
H276        O277   0.966       .  S
O277       Ni285   1.907       .  S
O277       Ni279   1.913       .  S
O277       Ni284   1.902       .  S
O278       Ni279   1.925       .  S
Ni279       O283   1.915       .  S
Ni279       O281   1.926       .  S
O280       Ni285   1.928       .  S
C282        O283   1.266       .  A
C282        C477   1.472       .  S
O287       Ni293   1.926       .  S
O287        C308   1.272       .  A
O288       Ni311   1.913       .  S
O288        C297   1.268       .  A
O289       Ni293   1.908       .  S
O289       Ni311   1.915       .  S
O289       Ni305   1.922       .  S
O289        H312   0.966       .  S
C290        O307   1.277       .  A
C290        O299   1.279       .  A
C290        C367   1.491       .  S
O291       Ni310   1.935       .  S
O291        C297   1.273       .  A
O292       Ni310   1.896       .  S
O292        C294   1.268       .  A
Ni293       O296   1.935       .  S
Ni293       O298   1.900       .  S
C294        O304   1.271       .  A
C294        C404   1.480       .  S
O295       Ni311   1.908       .  S
O295       C1645   1.270       .  A
O296       C1645   1.275       .  A
C297        C314   1.483       .  S
O298        C300   1.268       .  A
O299       Ni310   1.924       .  S
C300        O306   1.277       .  A
C300       C1069   1.488   1_545  S
C301       O1639   1.270   1_455  A
C301       O1640   1.275   1_455  A
C301        C357   1.476       .  S
H302        O303   0.966       .  S
O303       Ni311   1.903       .  S
O303       Ni305   1.902       .  S
O303       Ni310   1.897       .  S
O304       Ni305   1.926       .  S
Ni305       O309   1.906       .  S
Ni305       O307   1.926       .  S
O306       Ni311   1.944       .  S
C308        O309   1.266       .  A
C308        C467   1.470       .  S
C313        C314   1.406       .  A
C313        C318   1.405   1_554  A
C313        F320   1.357       .  S
C314       C1659   1.406       .  A
C315        C316   1.395   1_654  A
C315       C1658   1.406       .  A
C315        F322   1.358       .  S
C316        C317   1.410       .  A
C316        F321   1.359       .  S
C317       C1662   1.412       .  A
C318       C1661   1.412       .  A
C318        F319   1.358       .  S
C323        C324   1.410       .  A
C323        C328   1.393       .  A
C323        F330   1.358       .  S
C324        C325   1.414       .  A
C325        C326   1.404       .  A
C325        F332   1.358       .  S
C326        C327   1.410       .  A
C326        F331   1.358       .  S
C327        C328   1.406       .  A
C328        F329   1.358       .  S
C333        C334   1.407       .  A
C333        C338   1.402       .  A
C333       F1012   1.358       .  S
C334        C921   1.473   1_545  S
C334        C335   1.403       .  A
C335        C336   1.392       .  A
C335        F342   1.357       .  S
C336        C337   1.407       .  A
C336        F341   1.359       .  S
C337        C338   1.411       .  A
C338        F339   1.359       .  S
F340       C1005   1.358       .  S
C343        C344   1.406       .  A
C343        C348   1.401   1_556  A
C343        F350   1.357       .  S
C344        C345   1.408       .  A
C345       C1018   1.397   1_556  A
C345        F352   1.359       .  S
C346        C347   1.409       .  A
C346       C1017   1.398   1_544  A
C346        F351   1.358       .  S
C347       C1020   1.411       .  A
C348       C1019   1.408       .  A
C348       F1021   1.357       .  S
F349       C1020   1.358       .  S
C353        C354   1.411       .  A
C353        C358   1.394       .  A
C353        F360   1.358       .  S
C354        C355   1.413       .  A
C355        C356   1.404       .  A
C355        F362   1.358       .  S
C356        C357   1.407       .  A
C356        F361   1.358       .  S
C357        C358   1.402       .  A
C358        F359   1.358       .  S
C363        C364   1.404       .  A
C363        C368   1.396       .  A
C363        F370   1.358       .  S
C364        C365   1.409       .  A
C365        C366   1.403       .  A
C365        F372   1.359       .  S
C366        C367   1.414       .  A
C366        F371   1.358       .  S
C367        C368   1.410       .  A
C368        F369   1.357       .  S
C373        C378   1.403       .  A
C373       C1718   1.408       .  A
C373       F1724   1.357   1_455  S
C374       C1717   1.408       .  A
C374       C1719   1.410       .  A
C375        C376   1.398       .  A
C375       C1718   1.410       .  A
C375        F382   1.359       .  S
C376        C377   1.404       .  A
C376        F381   1.358       .  S
C377        C378   1.407       .  A
C378        F379   1.358       .  S
F380       C1717   1.357       .  S
C383        C384   1.409       .  A
C383        C388   1.404       .  A
C383        F390   1.358       .  S
C384        C385   1.407       .  A
C385        C386   1.399       .  A
C385        F392   1.358       .  S
C386        C387   1.409       .  A
C386        F391   1.358       .  S
C387        C388   1.411       .  A
C388        F389   1.358       .  S
C393        C394   1.406       .  A
C393        C398   1.398       .  A
C393        F400   1.357       .  S
C394        C395   1.405       .  A
C395        C396   1.398       .  A
C395        F402   1.358       .  S
C396        C397   1.412       .  A
C396        F401   1.359       .  S
C397        C972   1.486       .  S
C397        C398   1.409       .  A
C398       F1071   1.358       .  S
F399       C1070   1.358       .  S
C403        C404   1.409       .  A
C403        C408   1.403       .  A
C403        F410   1.358       .  S
C404        C405   1.406       .  A
C405        C406   1.392       .  A
C405        F412   1.358       .  S
C406        C407   1.408       .  A
C406        F411   1.358       .  S
C407        C408   1.413       .  A
C408        F409   1.358       .  S
C413        C414   1.410       .  A
C413        C418   1.396       .  A
C413        F420   1.358       .  S
C414        C415   1.409       .  A
C415        C416   1.402       .  A
C415        F422   1.358       .  S
C416        C417   1.410       .  A
C416        F421   1.358       .  S
C417        C418   1.404       .  A
C418        F419   1.358       .  S
C423        C428   1.391       .  A
C423       C1096   1.409   1_545  A
C423        F430   1.358       .  S
C424        C425   1.409       .  A
C424       C1095   1.409       .  A
C425       C1098   1.403       .  A
C425        F432   1.358       .  S
C426        C427   1.409       .  A
C426       C1097   1.405       .  A
C426       F1775   1.358       .  S
C427        C428   1.405       .  A
C428        F429   1.359       .  S
F431       C1770   1.358       .  S
C433        C434   1.408       .  A
C433        C438   1.398       .  A
C433        F440   1.358       .  S
C434        C435   1.409       .  A
C435        C436   1.399       .  A
C435        F442   1.358       .  S
C436        C437   1.406       .  A
C436        F441   1.358       .  S
C437        C438   1.404       .  A
C438        F439   1.358       .  S
C443        C444   1.402       .  A
C443        C448   1.394       .  A
C443        F450   1.358       .  S
C444        C445   1.407       .  A
C445        C446   1.401       .  A
C445        F452   1.359       .  S
C446       C1791   1.411       .  A
C446        F451   1.358       .  S
C447       C1790   1.411       .  A
C447       C1792   1.410       .  A
C448       C1791   1.410       .  A
C448       F1793   1.358       .  S
F449       C1792   1.358       .  S
C453        C454   1.405       .  A
C453        C458   1.400   1_556  A
C453        F460   1.358       .  S
C454        C455   1.406       .  A
C455        C456   1.406   1_556  A
C455        F462   1.358       .  S
C456        C457   1.415       .  A
C456        F461   1.357       .  S
C457        C458   1.413       .  A
C458        F459   1.358       .  S
C463        C464   1.408       .  A
C463        C468   1.398       .  A
C463        F470   1.358       .  S
C464        C465   1.406       .  A
C465        C466   1.403       .  A
C465        F472   1.357       .  S
C466        C467   1.403       .  A
C466        F471   1.358       .  S
C467        C468   1.403       .  A
C468        F469   1.359       .  S
C473        C474   1.410       .  A
C473        C478   1.407       .  A
C473        F480   1.357       .  S
C474        C475   1.407       .  A
C475        C476   1.392       .  A
C475        F482   1.359       .  S
C476        C477   1.403       .  A
C476        F481   1.359       .  S
C477        C478   1.405       .  A
C478        F479   1.357       .  S
C483        C484   1.406       .  A
C483        C488   1.395   1_455  A
C483        F490   1.358       .  S
C484       C1829   1.411       .  A
C485        C486   1.410       .  A
C485       C1828   1.411       .  A
C485        F492   1.358       .  S
C486        C487   1.413       .  A
C486        F491   1.358       .  S
C487       C1832   1.408       .  A
C488       C1831   1.408       .  A
C488        F489   1.357       .  S
C493        C494   1.408       .  A
C493        C498   1.393       .  A
C493        F500   1.359       .  S
C494        C495   1.405       .  A
C495        C496   1.406       .  A
C495        F502   1.357       .  S
C496        C497   1.408       .  A
C496        F501   1.357       .  S
C497        C498   1.402       .  A
C498        F499   1.359       .  S
C503        C504   1.406       .  A
C503        C508   1.397       .  A
C503        F510   1.358       .  S
C504        C505   1.406       .  A
C505        C506   1.396       .  A
C505        F512   1.359       .  S
C506        C507   1.408       .  A
C506        F511   1.358       .  S
C507        C508   1.405       .  A
C508        F509   1.357       .  S
C513        C514   1.408       .  A
C513        C518   1.396       .  A
C513        F520   1.359       .  S
C514        C754   1.465   1_545  S
C514        C515   1.401       .  A
C515        C516   1.388       .  A
C515        F522   1.358       .  S
C516        C517   1.409       .  A
C516        F521   1.358       .  S
C517        C518   1.408       .  A
C518        F519   1.359       .  S
C523        C524   1.408       .  A
C523        C528   1.406       .  A
C523        F530   1.358       .  S
C524        C525   1.406       .  A
C525        C526   1.397       .  A
C525        F532   1.358       .  S
C526        C527   1.402       .  A
C526        F531   1.358       .  S
C527        C528   1.406       .  A
C528        F529   1.358       .  S
C533        C534   1.410       .  A
C533        C538   1.405       .  A
C533        F540   1.357       .  S
C534        C535   1.409       .  A
C535       C1208   1.397       .  A
C535       F1214   1.358       .  S
C536        C537   1.408       .  A
C536       C1207   1.397   1_545  A
C536        F541   1.359       .  S
C537       C1210   1.409       .  A
C538       C1209   1.408       .  A
C538        F539   1.357       .  S
F542       C1207   1.358       .  S
C543        C544   1.399       .  A
C543        C548   1.394       .  A
C543        F550   1.358       .  S
C544        C545   1.404       .  A
C545        C546   1.400       .  A
C545       F1896   1.359       .  S
C546        C547   1.411       .  A
C546        F551   1.358       .  S
C547        C548   1.411       .  A
C548        F549   1.358       .  S
F552       C1889   1.359       .  S
C553        C554   1.407       .  A
C553        C558   1.397       .  A
C553        F560   1.358       .  S
C554        C555   1.408       .  A
C555        C556   1.401       .  A
C555        F562   1.358       .  S
C556        C557   1.411       .  A
C556        F561   1.358       .  S
C557        C558   1.409       .  A
C558        F559   1.358       .  S
C563        C564   1.404       .  A
C563        C568   1.394       .  A
C563        F570   1.358       .  S
C564        C565   1.409       .  A
C565        C566   1.410       .  A
C565        F572   1.357       .  S
C566        C567   1.408       .  A
C566        F571   1.357       .  S
C567        C568   1.406       .  A
C568        F569   1.358       .  S
C573        C574   1.407       .  A
C573        C578   1.399       .  A
C573        F580   1.358       .  S
C574        C810   1.484       .  S
C574        C575   1.412       .  A
C575        C576   1.400       .  A
C575       F1254   1.359       .  S
C576        C577   1.404       .  A
C576        F581   1.358       .  S
C577        C578   1.407       .  A
C578        F579   1.358       .  S
F582       C1247   1.359       .  S
C583        C584   1.409       .  A
C583        C588   1.403       .  A
C583        F590   1.358       .  S
C584        C585   1.406       .  A
C585        C586   1.396       .  A
C585        F592   1.358       .  S
C586        C587   1.410       .  A
C586        F591   1.358       .  S
C587        C588   1.410       .  A
C588        F589   1.358       .  S
C593        C598   1.393       .  A
C593       C1938   1.408   1_455  A
C593        F600   1.358       .  S
C594       C1937   1.408       .  A
C594       C1939   1.410       .  A
C595        C596   1.403       .  A
C595       C1938   1.410   1_455  A
C595       F1946   1.358   1_455  S
C596        C597   1.409       .  A
C596        F601   1.358       .  S
C597        C598   1.405       .  A
C598        F599   1.358       .  S
F602       C1939   1.358       .  S
C603        C604   1.405       .  A
C603        C608   1.399       .  A
C603        F610   1.358       .  S
C604        C605   1.408       .  A
C605        C606   1.400       .  A
C605        F612   1.358       .  S
C606        C607   1.409       .  A
C606        F611   1.358       .  S
C607        C608   1.409       .  A
C608        F609   1.358       .  S
C613        C614   1.407       .  A
C613        C618   1.407       .  A
C613        F620   1.358       .  S
C614        C615   1.404       .  A
C615        C616   1.393       .  A
C615        F622   1.359       .  S
C616        C617   1.406       .  A
C616        F621   1.359       .  S
C617        C618   1.408       .  A
C618        F619   1.357       .  S
C623        C624   1.404       .  A
C623        C628   1.397       .  A
C623        F630   1.358       .  S
C624        C625   1.404       .  A
C625        C626   1.397       .  A
C625        F632   1.359       .  S
C626        C627   1.411       .  A
C626        F631   1.358       .  S
C627        C628   1.408       .  A
C628        F629   1.357       .  S
C633        C634   1.413       .  A
C633       C1310   1.393       .  A
C633        F640   1.359       .  S
C634       C1307   1.409       .  A
C635        C636   1.402       .  A
C635       C1306   1.409   1_545  A
C635        F642   1.357   1_545  S
C636        C637   1.408       .  A
C636        F641   1.358       .  S
C637        C638   1.404       .  A
C638       C1305   1.396       .  A
C638       F1983   1.359       .  S
F639       C1982   1.359       .  S
C643        C644   1.409       .  A
C643        C648   1.394       .  A
C643        F650   1.358       .  S
C644        C645   1.411       .  A
C645        C646   1.401       .  A
C645        F652   1.358       .  S
C646        C647   1.407       .  A
C646        F651   1.358       .  S
C647        C648   1.408       .  A
C648        F649   1.359       .  S
C653        C658   1.401       .  A
C653       C1998   1.406       .  A
C653       F2004   1.358       .  S
C654       C1997   1.406   1_455  A
C654       C1999   1.409   1_455  A
C655        C656   1.390       .  A
C655       C1998   1.409       .  A
C655        F662   1.359       .  S
C656        C657   1.404       .  A
C656        F661   1.358       .  S
C657        C658   1.410       .  A
C658        F659   1.358       .  S
F660       C1997   1.358   1_455  S
C663        C664   1.409       .  A
C663        C668   1.397       .  A
C663        F670   1.359       .  S
C664        C665   1.407       .  A
C665        C666   1.405       .  A
C665        F672   1.358       .  S
C666        C667   1.411       .  A
C666        F671   1.357       .  S
C667        C668   1.409       .  A
C668        F669   1.358       .  S
O673       Ni679   1.933       .  S
O673        C694   1.273       .  A
O674       Ni697   1.925       .  S
O674        C683   1.270       .  A
O675       Ni679   1.896       .  S
O675       Ni697   1.902       .  S
O675       Ni691   1.901       .  S
O675        H698   0.965       .  S
C676        O693   1.271       .  A
C676        O685   1.275       .  A
C676       C1329   1.476       .  S
O677       Ni696   1.921       .  S
O677        C683   1.269       .  A
O678       Ni696   1.893       .  S
O678        C680   1.267       .  A
Ni679       O682   1.923       .  S
Ni679       O684   1.905       .  S
C680        O690   1.278       .  A
C680       C1306   1.489       .  S
O681       Ni697   1.920       .  S
O681        C687   1.279       .  A
O682        C687   1.280       .  A
C683       C1286   1.479       .  S
O684        C686   1.268       .  A
O685       Ni696   1.919       .  S
C686        O692   1.272       .  A
C686       C1296   1.475       .  S
C687       C1316   1.485       .  S
H688        O689   0.976       .  S
O689       Ni697   1.914       .  S
O689       Ni691   1.911       .  S
O689       Ni696   1.899       .  S
O690       Ni691   1.945       .  S
Ni691       O695   1.909       .  S
Ni691       O693   1.907       .  S
O692       Ni697   1.925       .  S
C694        O695   1.270       .  A
C694       C1336   1.491       .  S
O699       Ni705   1.942       .  S
O699        C720   1.276       .  A
O700       Ni723   1.920       .  S
O700        C709   1.267       .  A
O701       Ni705   1.896       .  S
O701       Ni723   1.907       .  S
O701       Ni717   1.903       .  S
O701        H724   0.966       .  S
C702        O719   1.273       .  A
C702        O711   1.276       .  A
C702       C1249   1.478       .  S
O703       Ni722   1.932       .  S
O703        C709   1.272       .  A
O704       Ni722   1.903       .  S
O704        C706   1.269       .  A
Ni705       O708   1.928       .  S
Ni705       O710   1.904       .  S
C706        O716   1.272       .  A
C706       C1266   1.487       .  S
O707       Ni723   1.917       .  S
O707        C713   1.278       .  A
O708        C713   1.281       .  A
C709       C1236   1.483       .  S
O710        C712   1.269       .  A
O711       Ni722   1.929       .  S
C712        O718   1.271       .  A
C712       C1276   1.476       .  S
C713       C1256   1.482       .  S
H714        O715   0.966       .  S
O715       Ni723   1.918       .  S
O715       Ni717   1.915       .  S
O715       Ni722   1.908       .  S
O716       Ni717   1.935       .  S
Ni717       O721   1.909       .  S
Ni717       O719   1.912       .  S
O718       Ni723   1.925       .  S
C720        O721   1.267       .  A
C720       C1339   1.488       .  S
O725       Ni731   1.933       .  S
O725        C746   1.275       .  A
O726       Ni749   1.921       .  S
O726        C735   1.269       .  A
O727       Ni731   1.892       .  S
O727       Ni749   1.902       .  S
O727       Ni743   1.907       .  S
O727        H750   0.966       .  S
C728        O745   1.275       .  A
C728        O737   1.279   1_565  A
C728       C1269   1.479       .  S
O729       Ni748   1.929       .  S
O729        C735   1.270       .  A
O730       Ni748   1.898       .  S
O730        C732   1.267       .  A
Ni731       O734   1.922       .  S
Ni731       O736   1.909       .  S
C732        O742   1.273       .  A
C732       C1219   1.483       .  S
O733       Ni749   1.922       .  S
O733        C739   1.278       .  A
O734        C739   1.280       .  A
C735       C1196   1.478       .  S
O736        C738   1.269       .  A
C738        O744   1.272       .  A
C738       C1226   1.482       .  S
C739       C1279   1.479       .  S
H740        O741   0.966       .  S
O741       Ni749   1.906       .  S
O741       Ni743   1.906       .  S
O741       Ni748   1.896       .  S
O742       Ni743   1.937       .  S
Ni743       O747   1.913       .  S
O744       Ni749   1.926       .  S
C746        O747   1.270       .  A
C746       C1209   1.488       .  S
O751       Ni757   1.938       .  S
O751        C772   1.274       .  A
O752       Ni775   1.931       .  S
O752        C761   1.272       .  A
O753       Ni757   1.889       .  S
O753       Ni775   1.906       .  S
O753       Ni769   1.896       .  S
O753        H776   0.966       .  S
C754        O771   1.272       .  A
C754        O763   1.276       .  A
O755       Ni774   1.912       .  S
O755        C761   1.265       .  A
O756       Ni774   1.884       .  S
O756        C758   1.264       .  A
Ni757       O760   1.922       .  S
Ni757       O762   1.899       .  S
C758        O768   1.272       .  A
C758       C1326   1.473   1_455  S
O759       Ni775   1.913       .  S
O759        C765   1.277       .  A
O760        C765   1.280       .  A
C761       C1166   1.478       .  S
O762        C764   1.268       .  A
O763       Ni774   1.910       .  S
C764        O770   1.274       .  A
C764       C1319   1.479       .  S
C765       C1176   1.475       .  S
H766        O767   0.966       .  S
O767       Ni775   1.906       .  S
O767       Ni769   1.903       .  S
O767       Ni774   1.891       .  S
O768       Ni769   1.929       .  S
Ni769       O773   1.906       .  S
Ni769       O771   1.901       .  S
O770       Ni775   1.930       .  S
C772        O773   1.267       .  A
C772       C1206   1.488       .  S
O777       Ni783   1.938       .  S
O777        C798   1.275       .  A
O778       Ni801   1.925       .  S
O778        C787   1.269       .  A
O779       Ni783   1.898       .  S
O779       Ni801   1.910       .  S
O779       Ni795   1.909       .  S
O779        H802   0.966       .  S
C780       O2141   1.273       .  A
C780       O2133   1.277       .  A
C780       C1309   1.475       .  S
O781       Ni800   1.920       .  S
O781        C787   1.267       .  A
O782       Ni800   1.883       .  S
O782        C784   1.263       .  A
Ni783       O786   1.929       .  S
Ni783       O788   1.910       .  S
C784        O794   1.269       .  A
C784       C1189   1.473       .  S
O785       Ni801   1.917       .  S
O785        C791   1.277       .  A
O786        C791   1.279       .  A
C787       C1146   1.480       .  S
O788        C790   1.270       .  A
O789       Ni800   1.926       .  S
O789       C2124   1.277       .  A
C790        O796   1.270       .  A
C790       C1179   1.475       .  S
C791       C1299   1.483       .  S
H792        O793   0.966       .  S
O793       Ni801   1.906       .  S
O793       Ni795   1.910       .  S
O793       Ni800   1.898       .  S
O794       Ni795   1.926       .  S
Ni795       O799   1.911       .  S
Ni795       O797   1.905       .  S
O796       Ni801   1.918       .  S
O797       C2124   1.273       .  A
C798        O799   1.266       .  A
C798       C1156   1.491       .  S
O803       Ni809   1.941       .  S
O803        C824   1.274       .  A
O804       Ni827   1.922       .  S
O804        C813   1.269       .  A
O805       Ni809   1.905       .  S
O805       Ni827   1.914       .  S
O805       Ni821   1.899       .  S
O805        H828   0.966       .  S
C806       O2167   1.265   1_455  A
C806       O2159   1.272   1_455  A
C806       C1216   1.467       .  S
O807       Ni826   1.915       .  S
O807        C813   1.267       .  A
O808       Ni826   1.898       .  S
O808        C810   1.266       .  A
Ni809       O812   1.925       .  S
Ni809       O814   1.904       .  S
C810        O820   1.275       .  A
O811       Ni827   1.914       .  S
O811        C817   1.275       .  A
O812        C817   1.278       .  A
C813       C1136   1.472       .  S
O814        C816   1.269       .  A
O815       Ni826   1.928       .  S
O815       C2150   1.272       .  A
C816        O822   1.274       .  A
C816       C1259   1.487       .  S
C817       C1229   1.484       .  S
H818        O819   0.967       .  S
O819       Ni827   1.918       .  S
O819       Ni821   1.922       .  S
O819       Ni826   1.917       .  S
O820       Ni821   1.944       .  S
Ni821       O825   1.910       .  S
Ni821       O823   1.897       .  S
O822       Ni827   1.935       .  S
O823       C2150   1.265       .  A
C824        O825   1.264       .  A
C824       C1159   1.491       .  S
O829       Ni835   1.919       .  S
O829        C850   1.267       .  A
O830       Ni853   1.910       .  S
O830        C839   1.267       .  A
O831       Ni835   1.895       .  S
O831       Ni853   1.908       .  S
O831       Ni847   1.911       .  S
O831        H854   0.965       .  S
C832        O849   1.279       .  A
C832        O841   1.280       .  A
C832       C1106   1.480       .  S
O833       Ni852   1.940       .  S
O833        C839   1.275       .  A
O834       Ni852   1.910       .  S
O834        C836   1.270       .  A
Ni835       O838   1.921       .  S
Ni835       O840   1.894       .  S
C836        O846   1.271       .  A
C836       C1089   1.483       .  S
O837       Ni853   1.911       .  S
O837        C843   1.274       .  A
O838        C843   1.277       .  A
C839       C1126   1.486       .  S
O840        C842   1.266       .  A
O841       Ni852   1.925       .  S
C842        O848   1.273       .  A
C842       C1096   1.485       .  S
C843       C1116   1.474       .  S
H844        O845   0.967       .  S
O845       Ni853   1.905       .  S
O845       Ni847   1.912       .  S
O845       Ni852   1.898       .  S
O846       Ni847   1.924       .  S
Ni847       O851   1.936       .  S
Ni847       O849   1.918       .  S
O848       Ni853   1.937       .  S
C850        O851   1.271       .  A
C850       C1289   1.485       .  S
O855       Ni861   1.924       .  S
O855        C876   1.269       .  A
O856       Ni879   1.911       .  S
O856        C865   1.269       .  A
O857       Ni861   1.903       .  S
O857       Ni879   1.913       .  S
O857       Ni873   1.916       .  S
O857        H880   0.966       .  S
C858        O875   1.278       .  A
C858        O867   1.281       .  A
C858       C1079   1.488       .  S
O859       Ni878   1.944       .  S
O859        C865   1.277       .  A
O860       Ni878   1.905       .  S
O860        C862   1.270       .  A
Ni861       O864   1.931       .  S
Ni861       O866   1.902       .  S
C862        O872   1.275       .  A
C862       C1056   1.484       .  S
O863       Ni879   1.917       .  S
O863        C869   1.276       .  A
O864        C869   1.277       .  A
C865       C1129   1.499       .  S
O866        C868   1.267       .  A
O867       Ni878   1.925       .  S
C868        O874   1.274       .  A
C868       C1046   1.488       .  S
C869       C1066   1.481       .  S
H870        O871   0.966       .  S
O871       Ni879   1.905       .  S
O871       Ni873   1.910       .  S
O871       Ni878   1.894       .  S
O872       Ni873   1.935       .  S
Ni873       O877   1.933       .  S
Ni873       O875   1.921       .  S
O874       Ni879   1.943       .  S
C876        O877   1.270       .  A
C876       C1239   1.486       .  S
O881       Ni887   1.918       .  S
O881        C902   1.268       .  A
O882       Ni905   1.905       .  S
O882        C891   1.267       .  A
O883       Ni887   1.912       .  S
O883       Ni905   1.920       .  S
O883       Ni899   1.930       .  S
O883        H906   0.966       .  S
C884        O901   1.279       .  A
C884        O893   1.278       .  A
C884       C1059   1.488       .  S
O885       Ni904   1.936       .  S
O885        C891   1.272       .  A
O886       Ni904   1.902       .  S
O886        C888   1.268       .  A
Ni887       O892   1.898       .  S
C888        O898   1.271       .  A
C888       C1036   1.482       .  S
O889        C895   1.271       .  A
O890        C895   1.272       .  A
C891       C1019   1.485       .  S
O892        C894   1.270       .  A
O893       Ni904   1.923       .  S
C894        O900   1.278       .  A
C894       C1026   1.492       .  S
C895       C1049   1.478       .  S
H896        O897   0.967       .  S
O897       Ni905   1.902       .  S
O897       Ni899   1.905       .  S
O897       Ni904   1.905       .  S
O898       Ni899   1.925       .  S
Ni899       O903   1.918       .  S
Ni899       O901   1.927       .  S
O900       Ni905   1.947       .  S
C902        O903   1.269       .  A
C902       C1199   1.471       .  S
O907       Ni913   1.927       .  S
O907        C928   1.272       .  A
O908       Ni931   1.910       .  S
O908        C917   1.267       .  A
O909       Ni913   1.904       .  S
O909       Ni931   1.914       .  S
O909       Ni925   1.916       .  S
O909        H932   0.967       .  S
C910        O927   1.277       .  A
C910        O919   1.278       .  A
C910        C996   1.491       .  S
O911       Ni930   1.933       .  S
O911        C917   1.273       .  A
O912       Ni930   1.904       .  S
O912        C914   1.268       .  A
Ni913       O916   1.926       .  S
Ni913       O918   1.904       .  S
C914        O924   1.271       .  A
C914       C1109   1.476       .  S
O915       Ni931   1.910       .  S
O915        C921   1.271       .  A
O916        C921   1.275       .  A
C917       C1016   1.484       .  S
O918        C920   1.269       .  A
O919       Ni930   1.920       .  S
C920        O926   1.274       .  A
C920       C1119   1.486   1_455  S
H922        O923   0.966       .  S
O923       Ni931   1.906       .  S
O923       Ni925   1.905       .  S
O923       Ni930   1.897       .  S
O924       Ni925   1.924       .  S
Ni925       O929   1.912       .  S
Ni925       O927   1.925       .  S
O926       Ni931   1.936       .  S
C928        O929   1.266       .  A
C928       C1169   1.477       .  S
O933       Ni939   1.916       .  S
O933        C954   1.268       .  A
O934       Ni957   1.905       .  S
O934        C943   1.264       .  A
O935       Ni939   1.908       .  S
O935       Ni957   1.921       .  S
O935       Ni951   1.923       .  S
O935        H958   0.966       .  S
C936        O953   1.276       .  A
C936        O945   1.275       .  A
C936       C1086   1.484       .  S
O937       Ni956   1.930       .  S
O937        C943   1.272       .  A
O938       Ni956   1.903       .  S
O938        C940   1.270       .  A
Ni939       O942   1.915       .  S
Ni939       O944   1.889       .  S
C940        O950   1.271       .  A
C940        C999   1.487       .  S
O941       Ni957   1.911       .  S
O941       C2291   1.270   1_455  A
O942       C2291   1.271   1_455  A
C943        C989   1.487       .  S
O944        C946   1.267       .  A
O945       Ni956   1.916       .  S
C946        O952   1.272       .  A
C946       C1009   1.480       .  S
C947       O2285   1.270       .  A
C947       O2286   1.271       .  A
C947       C1099   1.474       .  S
H948        O949   0.966       .  S
O949       Ni957   1.905       .  S
O949       Ni951   1.910       .  S
O949       Ni956   1.901       .  S
O950       Ni951   1.927       .  S
Ni951       O955   1.910       .  S
Ni951       O953   1.923       .  S
O952       Ni957   1.930       .  S
C954        O955   1.265       .  A
C954       C1149   1.468       .  S
O959       Ni965   1.922       .  S
O959        C980   1.271       .  A
O960       Ni983   1.914       .  S
O960        C969   1.268       .  A
O961       Ni965   1.908       .  S
O961       Ni983   1.917       .  S
O961       Ni977   1.922       .  S
O961        H984   0.966       .  S
C962        O979   1.277       .  A
C962        O971   1.278       .  A
C962       C1039   1.493       .  S
O963       Ni982   1.932       .  S
O963        C969   1.273       .  A
O964       Ni982   1.897       .  S
O964        C966   1.268       .  A
Ni965       O968   1.931       .  S
Ni965       O970   1.897       .  S
C966        O976   1.271       .  A
C966       C1076   1.480       .  S
O967       Ni983   1.911       .  S
O967       C2317   1.271       .  A
O968       C2317   1.274       .  A
C969        C986   1.484       .  S
O970        C972   1.267       .  A
O971       Ni982   1.924       .  S
C972        O978   1.276       .  A
C973       O2311   1.271   1_455  A
C973       O2312   1.274   1_455  A
C973       C1029   1.478       .  S
H974        O975   0.966       .  S
O975       Ni983   1.908       .  S
O975       Ni977   1.905       .  S
O975       Ni982   1.898       .  S
O976       Ni977   1.924       .  S
Ni977       O981   1.909       .  S
Ni977       O979   1.928       .  S
O978       Ni983   1.942       .  S
C980        O981   1.266       .  A
C980       C1139   1.470       .  S
C985        C986   1.407       .  A
C985        C990   1.406   1_554  A
C985        F992   1.357       .  S
C986       C2331   1.407       .  A
C987       C2330   1.407       .  A
C987        C988   1.394   1_654  A
C987        F994   1.358       .  S
C988        C989   1.409       .  A
C988        F993   1.358       .  S
C989       C2334   1.412       .  A
C990       C2333   1.412       .  A
C990        F991   1.358       .  S
C995        C996   1.409       .  A
C995       C1000   1.393       .  A
C995       F1002   1.358       .  S
C996        C997   1.414       .  A
C997        C998   1.405       .  A
C997       F1004   1.358       .  S
C998        C999   1.411       .  A
C998       F1003   1.358       .  S
C999       C1000   1.407       .  A
C1000      F1001   1.358       .  S
C1005      C1006   1.408       .  A
C1005      C1010   1.401       .  A
C1006      C1007   1.404       .  A
C1007      C1008   1.391       .  A
C1007      F1014   1.358       .  S
C1008      C1009   1.408       .  A
C1008      F1013   1.359       .  S
C1009      C1010   1.410       .  A
C1010      F1011   1.359       .  S
C1015      C1016   1.407       .  A
C1015      C1020   1.404   1_566  A
C1015      F1022   1.358       .  S
C1016      C1017   1.408       .  A
C1017      F1024   1.358       .  S
C1018      C1019   1.410       .  A
C1018      F1023   1.358       .  S
C1025      C1026   1.413       .  A
C1025      C1030   1.395       .  A
C1025      F1032   1.358       .  S
C1026      C1027   1.413       .  A
C1027      C1028   1.405       .  A
C1027      F1034   1.358       .  S
C1028      C1029   1.407       .  A
C1028      F1033   1.358       .  S
C1029      C1030   1.403       .  A
C1030      F1031   1.358       .  S
C1035      C1036   1.405       .  A
C1035      C1040   1.396       .  A
C1035      F1042   1.358       .  S
C1036      C1037   1.408       .  A
C1037      C1038   1.404       .  A
C1037      F1044   1.359       .  S
C1038      C1039   1.413       .  A
C1038      F1043   1.358       .  S
C1039      C1040   1.410       .  A
C1040      F1041   1.357       .  S
C1045      C2390   1.409       .  A
C1045      C1050   1.404       .  A
C1045      F2396   1.357   1_455  S
C1046      C2389   1.409       .  A
C1046      C2391   1.411       .  A
C1047      C2390   1.411       .  A
C1047      C1048   1.399       .  A
C1047      F1054   1.359       .  S
C1048      C1049   1.405       .  A
C1048      F1053   1.359       .  S
C1049      C1050   1.407       .  A
C1050      F1051   1.358       .  S
F1052      C2389   1.357       .  S
C1055      C1056   1.409       .  A
C1055      C1060   1.404       .  A
C1055      F1062   1.358       .  S
C1056      C1057   1.407       .  A
C1057      C1058   1.398       .  A
C1057      F1064   1.358       .  S
C1058      C1059   1.409       .  A
C1058      F1063   1.358       .  S
C1059      C1060   1.411       .  A
C1060      F1061   1.358       .  S
C1065      C1066   1.406       .  A
C1065      C1070   1.399       .  A
C1065      F1072   1.357       .  S
C1066      C1067   1.406       .  A
C1067      C1068   1.401       .  A
C1067      F1074   1.358       .  S
C1068      C1069   1.412       .  A
C1068      F1073   1.359       .  S
C1069      C1070   1.409       .  A
C1075      C1076   1.409       .  A
C1075      C1080   1.402       .  A
C1075      F1082   1.358       .  S
C1076      C1077   1.405       .  A
C1077      C1078   1.392       .  A
C1077      F1084   1.359       .  S
C1078      C1079   1.409       .  A
C1078      F1083   1.358       .  S
C1079      C1080   1.413       .  A
C1080      F1081   1.358       .  S
C1085      C1086   1.409       .  A
C1085      C1090   1.397       .  A
C1085      F1092   1.358       .  S
C1086      C1087   1.408       .  A
C1087      C1088   1.402       .  A
C1087      F1094   1.358       .  S
C1088      C1089   1.410       .  A
C1088      F1093   1.358       .  S
C1089      C1090   1.406       .  A
C1090      F1091   1.358       .  S
C1095      C1100   1.393       .  A
C1095      F1102   1.358       .  S
C1096      C1097   1.410   1_565  A
C1097      F1104   1.358   1_545  S
C1098      C1099   1.408       .  A
C1098      F2447   1.358       .  S
C1099      C1100   1.403       .  A
C1100      F1101   1.358       .  S
F1103      C2442   1.358       .  S
C1105      C1106   1.408       .  A
C1105      C1110   1.397       .  A
C1105      F1112   1.358       .  S
C1106      C1107   1.408       .  A
C1107      C1108   1.399       .  A
C1107      F1114   1.358       .  S
C1108      C1109   1.407       .  A
C1108      F1113   1.358       .  S
C1109      C1110   1.405       .  A
C1110      F1111   1.358       .  S
C1115      C1116   1.403       .  A
C1115      C1120   1.397       .  A
C1115      F1122   1.358       .  S
C1116      C1117   1.407       .  A
C1117      C1118   1.400       .  A
C1117      F1124   1.359       .  S
C1118      C2463   1.410       .  A
C1118      F1123   1.358       .  S
C1119      C2462   1.410       .  A
C1119      C2464   1.411       .  A
C1120      C2463   1.411       .  A
C1120      F2465   1.358       .  S
F1121      C2464   1.358       .  S
C1125      C1126   1.406       .  A
C1125      C1130   1.399   1_556  A
C1125      F1132   1.359       .  S
C1126      C1127   1.406       .  A
C1127      C1128   1.407   1_556  A
C1127      F1134   1.358       .  S
C1128      C1129   1.415       .  A
C1128      F1133   1.357       .  S
C1129      C1130   1.413       .  A
C1130      F1131   1.358       .  S
C1135      C1136   1.407       .  A
C1135      C1140   1.396       .  A
C1135      F1142   1.358       .  S
C1136      C1137   1.406       .  A
C1137      C1138   1.403       .  A
C1137      F1144   1.357       .  S
C1138      C1139   1.404       .  A
C1138      F1143   1.358       .  S
C1139      C1140   1.404       .  A
C1140      F1141   1.359       .  S
C1145      C1146   1.409       .  A
C1145      C1150   1.405       .  A
C1145      F1152   1.357       .  S
C1146      C1147   1.409       .  A
C1147      C1148   1.393       .  A
C1147      F1154   1.359       .  S
C1148      C1149   1.403       .  A
C1148      F1153   1.359       .  S
C1149      C1150   1.403       .  A
C1150      F1151   1.357       .  S
C1155      C1156   1.407       .  A
C1155      C1160   1.394   1_455  A
C1155      F1162   1.358       .  S
C1156      C2501   1.412       .  A
C1157      C2500   1.412       .  A
C1157      C1158   1.411       .  A
C1157      F1164   1.358       .  S
C1158      C1159   1.413       .  A
C1158      F1163   1.358       .  S
C1159      C2504   1.406       .  A
C1160      C2503   1.406       .  A
C1160      F1161   1.358       .  S
C1165      C1166   1.409       .  A
C1165      C1170   1.392       .  A
C1165      F1172   1.359       .  S
C1166      C1167   1.406       .  A
C1167      C1168   1.407       .  A
C1167      F1174   1.357       .  S
C1168      C1169   1.408       .  A
C1168      F1173   1.357       .  S
C1169      C1170   1.403       .  A
C1170      F1171   1.359       .  S
C1175      C1176   1.407       .  A
C1175      C1180   1.397       .  A
C1175      F1182   1.358       .  S
C1176      C1177   1.407       .  A
C1177      C1178   1.397       .  A
C1177      F1184   1.358       .  S
C1178      C1179   1.407       .  A
C1178      F1183   1.358       .  S
C1179      C1180   1.405       .  A
C1180      F1181   1.358       .  S
C1185      C1186   1.409       .  A
C1185      C1190   1.396       .  A
C1185      F1192   1.359       .  S
C1186      C1187   1.400       .  A
C1187      C1188   1.387       .  A
C1187      F1194   1.358       .  S
C1188      C1189   1.410       .  A
C1188      F1193   1.358       .  S
C1189      C1190   1.408       .  A
C1190      F1191   1.359       .  S
C1195      C1196   1.407       .  A
C1195      C1200   1.405       .  A
C1195      F1202   1.358       .  S
C1196      C1197   1.405       .  A
C1197      C1198   1.398       .  A
C1197      F1204   1.358       .  S
C1198      C1199   1.403       .  A
C1198      F1203   1.358       .  S
C1199      C1200   1.406       .  A
C1200      F1201   1.358       .  S
C1205      C1206   1.409       .  A
C1205      C1210   1.404   1_565  A
C1205      F1212   1.357       .  S
C1206      C1207   1.410       .  A
C1208      C1209   1.409       .  A
C1208      F1213   1.359       .  S
C1210      F1211   1.358       .  S
C1215      C1216   1.401       .  A
C1215      C1220   1.396       .  A
C1215      F1222   1.358       .  S
C1216      C1217   1.404       .  A
C1217      C1218   1.400       .  A
C1217      F2568   1.358       .  S
C1218      C1219   1.410       .  A
C1218      F1223   1.358       .  S
C1219      C1220   1.411       .  A
C1220      F1221   1.358       .  S
F1224      C2561   1.358       .  S
C1225      C1226   1.407       .  A
C1225      C1230   1.397       .  A
C1225      F1232   1.358       .  S
C1226      C1227   1.408       .  A
C1227      C1228   1.401       .  A
C1227      F1234   1.358       .  S
C1228      C1229   1.410       .  A
C1228      F1233   1.358       .  S
C1229      C1230   1.408       .  A
C1230      F1231   1.358       .  S
C1235      C1236   1.404       .  A
C1235      C1240   1.394       .  A
C1235      F1242   1.358       .  S
C1236      C1237   1.410       .  A
C1237      C1238   1.411       .  A
C1237      F1244   1.358       .  S
C1238      C1239   1.409       .  A
C1238      F1243   1.357       .  S
C1239      C1240   1.406       .  A
C1240      F1241   1.358       .  S
C1245      C1246   1.406       .  A
C1245      C1250   1.398       .  A
C1245      F1252   1.358   1_565  S
C1246      C1247   1.412       .  A
C1247      C1248   1.400       .  A
C1248      C1249   1.405       .  A
C1248      F1253   1.358       .  S
C1249      C1250   1.407       .  A
C1250      F1251   1.358       .  S
C1255      C1256   1.409       .  A
C1255      C1260   1.402       .  A
C1255      F1262   1.358       .  S
C1256      C1257   1.406       .  A
C1257      C1258   1.397       .  A
C1257      F1264   1.358       .  S
C1258      C1259   1.409       .  A
C1258      F1263   1.358       .  S
C1259      C1260   1.411       .  A
C1260      F1261   1.358       .  S
C1265      C2610   1.408   1_455  A
C1265      C1270   1.394       .  A
C1265      F1272   1.358       .  S
C1266      C2609   1.408       .  A
C1266      C2611   1.411       .  A
C1267      C2610   1.411   1_455  A
C1267      C1268   1.405       .  A
C1267      F2618   1.358   1_455  S
C1268      C1269   1.409       .  A
C1268      F1273   1.359       .  S
C1269      C1270   1.403       .  A
C1270      F1271   1.358       .  S
F1274      C2611   1.358       .  S
C1275      C1276   1.403       .  A
C1275      C1280   1.396       .  A
C1275      F1282   1.357       .  S
C1276      C1277   1.409       .  A
C1277      C1278   1.401       .  A
C1277      F1284   1.359       .  S
C1278      C1279   1.409       .  A
C1278      F1283   1.359       .  S
C1279      C1280   1.407       .  A
C1280      F1281   1.358       .  S
C1285      C1286   1.408       .  A
C1285      C1290   1.411       .  A
C1285      F1292   1.358       .  S
C1286      C1287   1.404       .  A
C1287      C1288   1.394       .  A
C1287      F1294   1.359       .  S
C1288      C1289   1.407       .  A
C1288      F1293   1.358       .  S
C1289      C1290   1.410       .  A
C1290      F1291   1.357       .  S
C1295      C1296   1.406       .  A
C1295      C1300   1.400       .  A
C1295      F1302   1.358       .  S
C1296      C1297   1.405       .  A
C1297      C1298   1.398       .  A
C1297      F1304   1.358       .  S
C1298      C1299   1.410       .  A
C1298      F1303   1.358       .  S
C1299      C1300   1.409       .  A
C1300      F1301   1.358       .  S
C1305      C1306   1.414   1_545  A
C1305      F1312   1.359       .  S
C1307      C1308   1.400       .  A
C1307      F1314   1.358       .  S
C1308      C1309   1.407       .  A
C1308      F1313   1.358       .  S
C1309      C1310   1.403       .  A
C1310      F2655   1.359       .  S
F1311      C2654   1.359       .  S
C1315      C1316   1.409       .  A
C1315      C1320   1.396       .  A
C1315      F1322   1.358       .  S
C1316      C1317   1.411       .  A
C1317      C1318   1.399       .  A
C1317      F1324   1.358       .  S
C1318      C1319   1.406       .  A
C1318      F1323   1.358       .  S
C1319      C1320   1.408       .  A
C1320      F1321   1.359       .  S
C1325      C2670   1.404       .  A
C1325      C1330   1.400       .  A
C1325      F2676   1.358       .  S
C1326      C2669   1.404       .  A
C1326      C2671   1.409       .  A
C1327      C2670   1.409       .  A
C1327      C1328   1.392       .  A
C1327      F1334   1.359       .  S
C1328      C1329   1.404       .  A
C1328      F1333   1.358       .  S
C1329      C1330   1.411       .  A
C1330      F1331   1.358       .  S
F1332      C2669   1.358   1_455  S
C1335      C1336   1.412       .  A
C1335      C1340   1.397       .  A
C1335      F1342   1.359       .  S
C1336      C1337   1.409       .  A
C1337      C1338   1.406       .  A
C1337      F1344   1.357       .  S
C1338      C1339   1.410       .  A
C1338      F1343   1.357       .  S
C1339      C1340   1.407       .  A
C1340      F1341   1.358       .  S
O1345     Ni1351   1.933       .  S
O1345      C1366   1.273       .  A
O1346     Ni1369   1.917       .  S
O1346      C1355   1.267       .  A
O1347     Ni1351   1.895       .  S
O1347     Ni1369   1.901       .  S
O1347     Ni1363   1.899       .  S
O1347      H1370   0.965       .  S
C1348      O1365   1.271       .  A
C1348      O1357   1.274       .  A
C1348      C2001   1.475       .  S
O1349     Ni1368   1.920       .  S
O1349      C1355   1.269       .  A
O1350     Ni1368   1.889       .  S
O1350      C1352   1.266       .  A
Ni1351     O1354   1.919       .  S
Ni1351     O1356   1.901       .  S
C1352      O1362   1.276       .  A
C1352      C1978   1.484       .  S
O1353     Ni1369   1.922       .  S
O1353      C1359   1.279       .  A
O1354      C1359   1.279       .  A
C1355      C1958   1.473       .  S
O1356      C1358   1.267       .  A
O1357     Ni1368   1.916       .  S
C1358      O1364   1.269       .  A
C1358      C1968   1.470       .  S
C1359      C1988   1.486       .  S
H1360      O1361   0.976       .  S
O1361     Ni1369   1.915       .  S
O1361     Ni1363   1.914       .  S
O1361     Ni1368   1.899       .  S
O1362     Ni1363   1.939       .  S
Ni1363     O1367   1.909       .  S
Ni1363     O1365   1.908       .  S
O1364     Ni1369   1.918       .  S
C1366      O1367   1.269       .  A
C1366      C2008   1.486       .  S
O1371     Ni1377   1.938       .  S
O1371      C1392   1.274       .  A
O1372     Ni1395   1.920       .  S
O1372      C1381   1.267       .  A
O1373     Ni1377   1.897       .  S
O1373     Ni1395   1.910       .  S
O1373     Ni1389   1.904       .  S
O1373      H1396   0.966       .  S
C1374      O1391   1.272       .  A
C1374      O1383   1.275       .  A
C1374      C1921   1.477       .  S
O1375     Ni1394   1.929       .  S
O1375      C1381   1.271       .  A
O1376     Ni1394   1.900       .  S
O1376      C1378   1.269       .  A
Ni1377     O1380   1.925       .  S
Ni1377     O1382   1.903       .  S
C1378      O1388   1.271       .  A
C1378      C1938   1.484       .  S
O1379     Ni1395   1.917       .  S
O1379      C1385   1.276       .  A
O1380      C1385   1.279       .  A
C1381      C1908   1.482       .  S
O1382      C1384   1.269       .  A
O1383     Ni1394   1.928       .  S
C1384      O1390   1.272       .  A
C1384      C1948   1.478       .  S
C1385      C1928   1.482       .  S
H1386      O1387   0.966       .  S
O1387     Ni1395   1.918       .  S
O1387     Ni1389   1.917       .  S
O1387     Ni1394   1.909       .  S
O1388     Ni1389   1.931       .  S
Ni1389     O1393   1.909       .  S
Ni1389     O1391   1.911       .  S
O1390     Ni1395   1.928       .  S
C1392      O1393   1.267       .  A
C1392      C2011   1.490       .  S
O1397     Ni1403   1.936       .  S
O1397      C1418   1.275       .  A
O1398     Ni1421   1.923       .  S
O1398      C1407   1.270       .  A
O1399     Ni1403   1.893       .  S
O1399     Ni1421   1.901       .  S
O1399     Ni1415   1.906       .  S
O1399      H1422   0.966       .  S
C1400      O1417   1.276       .  A
C1400      O1409   1.279       .  A
C1400      C1941   1.478       .  S
O1401     Ni1420   1.929       .  S
O1401      C1407   1.270       .  A
O1402     Ni1420   1.896       .  S
O1402      C1404   1.267       .  A
Ni1403     O1406   1.925       .  S
Ni1403     O1408   1.909       .  S
C1404      O1414   1.273       .  A
C1404      C1891   1.482       .  S
O1405     Ni1421   1.926       .  S
O1405      C1411   1.280       .  A
O1406      C1411   1.280       .  A
C1407      C1868   1.478       .  S
O1408      C1410   1.269       .  A
O1409     Ni2092   1.926       .  S
C1410      O1416   1.272       .  A
C1410      C1898   1.483       .  S
C1411      C1951   1.484       .  S
H1412      O1413   0.966       .  S
O1413     Ni1421   1.910       .  S
O1413     Ni1415   1.907       .  S
O1413     Ni1420   1.896       .  S
O1414     Ni1415   1.936       .  S
Ni1415     O1419   1.907       .  S
Ni1415     O2089   1.911   1_545  S
O1416     Ni1421   1.928       .  S
O1417     Ni2087   1.913       .  S
C1418      O1419   1.268       .  A
C1418      C1881   1.486       .  S
Ni1420     O2081   1.931       .  S
O1423     Ni1429   1.940       .  S
O1423      C1444   1.274       .  A
O1424     Ni1447   1.928       .  S
O1424      C1433   1.271       .  A
O1425     Ni1429   1.889       .  S
O1425     Ni1447   1.906       .  S
O1425     Ni1441   1.893       .  S
O1425      H1448   0.966       .  S
C1426      O1443   1.270       .  A
C1426      O1435   1.277       .  A
C1426      C2530   1.464       .  S
O1427     Ni1446   1.917       .  S
O1427      C1433   1.267       .  A
O1428     Ni1446   1.885       .  S
O1428      C1430   1.264       .  A
Ni1429     O1432   1.919       .  S
Ni1429     O1434   1.897       .  S
C1430      O1440   1.271       .  A
C1430      C1998   1.476       .  S
O1431     Ni1447   1.912       .  S
O1431      C1437   1.277       .  A
O1432      C1437   1.279       .  A
C1433      C1838   1.477       .  S
O1434      C1436   1.268       .  A
O1435     Ni1446   1.915       .  S
C1436      O1442   1.274       .  A
C1436      C1991   1.481       .  S
C1437      C1848   1.472       .  S
H1438      O1439   0.966       .  S
O1439     Ni1447   1.905       .  S
O1439     Ni1441   1.905       .  S
O1439     Ni1446   1.894       .  S
O1440     Ni1441   1.930       .  S
Ni1441     O1445   1.904       .  S
Ni1441     O1443   1.896       .  S
O1442     Ni1447   1.932       .  S
C1444      O1445   1.266       .  A
C1444      C1878   1.489       .  S
O1449     Ni1455   1.940       .  S
O1449      C1470   1.276       .  A
O1450     Ni1473   1.923       .  S
O1450      C1459   1.267       .  A
O1451     Ni1455   1.901       .  S
O1451     Ni1473   1.909       .  S
O1451     Ni1467   1.911       .  S
O1451      H1474   0.966       .  S
C1452      C1981   1.480   1_455  S
O1453     Ni1472   1.922       .  S
O1453      C1459   1.267       .  A
O1454     Ni1472   1.886       .  S
O1454      C1456   1.264       .  A
Ni1455     O1458   1.931       .  S
Ni1455     O1460   1.913       .  S
C1456      O1466   1.269       .  A
C1456      C1861   1.473       .  S
O1457     Ni1473   1.909       .  S
O1457      C1463   1.275       .  A
O1458      C1463   1.280       .  A
C1459      C1818   1.481       .  S
O1460      C1462   1.270       .  A
O1461     Ni1472   1.926       .  S
C1462      O1468   1.269       .  A
C1462      C1851   1.473       .  S
C1463      C1971   1.480       .  S
H1464      O1465   0.966       .  S
O1465     Ni1473   1.905       .  S
O1465     Ni1467   1.906       .  S
O1465     Ni1472   1.898       .  S
O1466     Ni1467   1.922       .  S
Ni1467     O1471   1.909       .  S
Ni1467     O1469   1.910       .  S
O1468     Ni1473   1.914       .  S
C1470      O1471   1.266       .  A
C1470      C1828   1.489       .  S
O1475     Ni1481   1.942       .  S
O1475      C1496   1.274       .  A
O1476     Ni1499   1.923       .  S
O1476      C1485   1.270       .  A
O1477     Ni1481   1.902       .  S
O1477     Ni1499   1.913       .  S
O1477     Ni1493   1.898       .  S
O1477      H1500   0.966       .  S
C1478      C1888   1.466       .  S
O1479     Ni1498   1.919       .  S
O1479      C1485   1.268       .  A
O1480     Ni1498   1.895       .  S
O1480      C1482   1.265       .  A
Ni1481     O1484   1.925       .  S
Ni1481     O1486   1.901       .  S
C1482      O1492   1.276       .  A
C1482      C2590   1.483   1_545  S
O1483     Ni1499   1.915       .  S
O1483      C1489   1.276       .  A
O1484      C1489   1.279       .  A
C1485      C1808   1.473       .  S
O1486      C1488   1.268       .  A
O1487     Ni1498   1.929       .  S
C1488      O1494   1.275       .  A
C1488      C1931   1.487       .  S
C1489      C1901   1.486       .  S
H1490      O1491   0.967       .  S
O1491     Ni1499   1.917       .  S
O1491     Ni1493   1.922       .  S
O1491     Ni1498   1.916       .  S
O1492     Ni1493   1.944       .  S
Ni1493     O1497   1.912       .  S
Ni1493     O1495   1.895       .  S
O1494     Ni1499   1.936       .  S
C1496      O1497   1.265       .  A
C1496      C1831   1.494       .  S
O1501     Ni1507   1.918       .  S
O1501      C1522   1.267       .  A
O1502     Ni1525   1.907       .  S
O1502      C1511   1.267       .  A
O1503     Ni1507   1.894       .  S
O1503     Ni1525   1.906       .  S
O1503     Ni1519   1.910       .  S
O1503      H1526   0.965       .  S
C1504      O1521   1.278       .  A
C1504      O1513   1.280       .  A
C1504      C1778   1.481       .  S
O1505     Ni1524   1.945       .  S
O1505      C1511   1.276       .  A
O1506     Ni1524   1.911       .  S
O1506      C1508   1.271       .  A
Ni1507     O1510   1.919       .  S
Ni1507     O1512   1.892       .  S
C1508      O1518   1.269       .  A
C1508      C1761   1.480       .  S
O1509     Ni1525   1.910       .  S
O1509      C1515   1.274       .  A
O1510      C1515   1.277       .  A
C1511      C1798   1.485       .  S
O1512      C1514   1.266       .  A
O1513     Ni1524   1.927       .  S
C1514      O1520   1.273       .  A
C1514      C1768   1.482       .  S
C1515      C1788   1.472       .  S
H1516      O1517   0.967       .  S
O1517     Ni1525   1.904       .  S
O1517     Ni1519   1.909       .  S
O1517     Ni1524   1.898       .  S
O1518     Ni1519   1.919       .  S
Ni1519     O1523   1.927       .  S
Ni1519     O1521   1.919       .  S
O1520     Ni1525   1.936       .  S
C1522      O1523   1.268       .  A
C1522      C1961   1.477       .  S
O1527     Ni1533   1.922       .  S
O1527      C1548   1.268       .  A
O1528     Ni1551   1.911       .  S
O1528      C1537   1.268       .  A
O1529     Ni1533   1.906       .  S
O1529     Ni1551   1.913       .  S
O1529     Ni1545   1.913       .  S
O1529      H1552   0.966       .  S
C1530      O1547   1.276       .  A
C1530      O1539   1.281       .  A
C1530      C1751   1.487       .  S
O1531     Ni1550   1.944       .  S
O1531      C1537   1.276       .  A
O1532     Ni1550   1.904       .  S
O1532      C1534   1.269       .  A
Ni1533     O1536   1.926       .  S
Ni1533     O1538   1.901       .  S
C1534      O1544   1.276       .  A
C1534      C1728   1.486       .  S
O1535     Ni1551   1.914       .  S
O1535      C1541   1.275       .  A
O1536      C1541   1.277       .  A
C1537      C1801   1.500       .  S
O1538      C1540   1.266       .  A
O1539     Ni1550   1.926       .  S
C1540      O1546   1.272       .  A
C1540      C1718   1.484   1_655  S
C1541      C1738   1.478       .  S
H1542      O1543   0.966       .  S
O1543     Ni1551   1.905       .  S
O1543     Ni1545   1.911       .  S
O1543     Ni1550   1.893       .  S
O1544     Ni1545   1.938       .  S
Ni1545     O1549   1.928       .  S
Ni1545     O1547   1.917       .  S
O1546     Ni1551   1.937       .  S
C1548      O1549   1.269       .  A
C1548      C1911   1.483       .  S
O1553     Ni1559   1.918       .  S
O1553      C1574   1.268       .  A
O1554     Ni1577   1.903       .  S
O1554      C1563   1.266       .  A
O1555     Ni1559   1.909       .  S
O1555     Ni1577   1.918       .  S
O1555     Ni1571   1.926       .  S
O1555      H1578   0.966       .  S
C1556      O1573   1.280       .  A
C1556      O1565   1.280       .  A
C1556      C1731   1.490       .  S
O1557     Ni1576   1.942       .  S
O1557      C1563   1.275       .  A
O1558     Ni1576   1.906       .  S
O1558      C1560   1.270       .  A
Ni1559     O2234   1.923   1_545  S
Ni1559     O1564   1.898       .  S
C1560      O1570   1.270       .  A
C1560      C1708   1.480       .  S
O1561     Ni2249   1.914       .  S
O1561      C1567   1.269       .  A
O1562     Ni2231   1.922       .  S
O1562      C1567   1.271       .  A
C1563      C1691   1.489       .  S
O1564      C1566   1.269       .  A
O1565     Ni1576   1.927       .  S
C1566      O1572   1.275       .  A
C1566      C1698   1.489       .  S
C1567      C1721   1.476       .  S
H1568      O1569   0.967       .  S
O1569     Ni1577   1.904       .  S
O1569     Ni1571   1.904       .  S
O1569     Ni1576   1.902       .  S
O1570     Ni1571   1.921       .  S
Ni1571     O1575   1.918       .  S
Ni1571     O1573   1.929       .  S
O1572     Ni1577   1.939       .  S
C1574      O1575   1.268       .  A
C1574      C1871   1.470       .  S
Ni1577     O2233   1.915   1_545  S
O1579     Ni1585   1.929       .  S
O1579      C1600   1.272       .  A
O1580     Ni1603   1.902       .  S
O1580      C1589   1.267       .  A
O1581     Ni1585   1.900       .  S
O1581     Ni1603   1.908       .  S
O1581     Ni1597   1.914       .  S
O1581      H1604   0.967       .  S
C1582      O1599   1.278       .  A
C1582      O1591   1.279       .  A
C1582      C1668   1.492       .  S
O1583     Ni1602   1.932       .  S
O1583      C1589   1.273       .  A
O1584     Ni1602   1.907       .  S
O1584      C1586   1.269       .  A
Ni1585     O1588   1.924       .  S
Ni1585     O1590   1.901       .  S
C1586      O1596   1.270       .  A
C1586      C1781   1.475       .  S
O1587     Ni1603   1.913       .  S
O1587      C1593   1.274       .  A
O1588      C1593   1.276       .  A
C1589      C1688   1.481       .  S
O1590      C1592   1.269       .  A
O1591     Ni1602   1.921       .  S
C1592      O1598   1.272       .  A
C1592      C1791   1.484       .  S
C1593      C2350   1.476       .  S
H1594      O1595   0.966       .  S
O1595     Ni1603   1.908       .  S
O1595     Ni1597   1.901       .  S
O1595     Ni1602   1.896       .  S
O1596     Ni1597   1.920       .  S
Ni1597     O1601   1.907       .  S
Ni1597     O1599   1.926       .  S
O1598     Ni1603   1.934       .  S
C1600      O1601   1.265       .  A
C1600      C1841   1.474       .  S
O1605     Ni1611   1.918       .  S
O1605      C1626   1.269       .  A
O1606     Ni1629   1.907       .  S
O1606      C1615   1.265       .  A
O1607     Ni1611   1.904       .  S
O1607     Ni1629   1.921       .  S
O1607     Ni1623   1.921       .  S
O1607      H1630   0.966       .  S
C1608      O1625   1.276       .  A
C1608      O1617   1.274       .  A
C1608      C1758   1.485       .  S
O1609     Ni1628   1.927       .  S
O1609      C1615   1.271       .  A
O1610     Ni1628   1.904       .  S
O1610      C1612   1.270       .  A
Ni1611     O1614   1.912       .  S
Ni1611     O1616   1.893       .  S
C1612      O1622   1.270       .  A
C1612      C1671   1.486       .  S
O1613     Ni1629   1.914       .  S
C1615      C1661   1.488       .  S
O1616      C1618   1.268       .  A
O1617     Ni1628   1.913       .  S
C1618      O1624   1.271       .  A
C1618      C1681   1.478       .  S
C1619      C1771   1.478       .  S
H1620      O1621   0.966       .  S
O1621     Ni1629   1.907       .  S
O1621     Ni1623   1.913       .  S
O1621     Ni1628   1.902       .  S
O1622     Ni1623   1.925       .  S
Ni1623     O1627   1.915       .  S
Ni1623     O1625   1.926       .  S
O1624     Ni1629   1.928       .  S
C1626      O1627   1.266       .  A
C1626      C1821   1.472       .  S
O1631     Ni1637   1.926       .  S
O1631      C1652   1.272       .  A
O1632     Ni1655   1.913       .  S
O1632      C1641   1.268       .  A
O1633     Ni1637   1.908       .  S
O1633     Ni1655   1.915       .  S
O1633     Ni1649   1.922       .  S
O1633      H1656   0.966       .  S
C1634      O1651   1.277       .  A
C1634      O1643   1.279       .  A
C1634      C1711   1.491       .  S
O1635     Ni1654   1.934       .  S
O1635      C1641   1.273       .  A
O1636     Ni1654   1.896       .  S
O1636      C1638   1.268       .  A
Ni1637     O1640   1.935       .  S
Ni1637     O1642   1.900       .  S
C1638      O1648   1.271       .  A
C1638      C1748   1.480       .  S
O1639     Ni1655   1.908       .  S
C1641      C1658   1.483       .  S
O1642      C1644   1.268       .  A
O1643     Ni1654   1.924       .  S
C1644      O1650   1.277       .  A
C1644      C2413   1.488   1_545  S
C1645      C1701   1.476       .  S
H1646      O1647   0.966       .  S
O1647     Ni1655   1.904       .  S
O1647     Ni1649   1.902       .  S
O1647     Ni1654   1.897       .  S
O1648     Ni1649   1.925       .  S
Ni1649     O1653   1.906       .  S
Ni1649     O1651   1.926       .  S
O1650     Ni1655   1.944       .  S
C1652      O1653   1.266       .  A
C1652      C1811   1.470       .  S
C1657      C1658   1.406       .  A
C1657      C1662   1.405   1_654  A
C1657      F1664   1.357       .  S
C1659      C1660   1.395   1_554  A
C1659      F1666   1.358       .  S
C1660      C1661   1.410       .  A
C1660      F1665   1.359       .  S
C1662      F1663   1.358       .  S
C1667      C1668   1.410       .  A
C1667      C1672   1.393       .  A
C1667      F1674   1.358       .  S
C1668      C1669   1.414       .  A
C1669      C1670   1.404       .  A
C1669      F1676   1.358       .  S
C1670      C1671   1.410       .  A
C1670      F1675   1.358       .  S
C1671      C1672   1.406       .  A
C1672      F1673   1.358       .  S
C1677      C1678   1.407       .  A
C1677      C1682   1.402       .  A
C1677      F2356   1.358       .  S
C1678      C2265   1.473   1_545  S
C1678      C1679   1.403       .  A
C1679      C1680   1.392       .  A
C1679      F1686   1.357       .  S
C1680      C1681   1.407       .  A
C1680      F1685   1.359       .  S
C1681      C1682   1.411       .  A
C1682      F1683   1.359       .  S
F1684      C2349   1.358       .  S
C1687      C1688   1.406       .  A
C1687      C1692   1.401   1_556  A
C1687      F1694   1.357       .  S
C1688      C1689   1.408       .  A
C1689      C2362   1.397   1_556  A
C1689      F1696   1.359       .  S
C1690      C2361   1.398   1_544  A
C1690      C1691   1.409       .  A
C1690      F1695   1.358       .  S
C1691      C2364   1.411       .  A
C1692      C2363   1.408       .  A
C1692      F2365   1.357       .  S
F1693      C2364   1.358       .  S
C1697      C1698   1.411       .  A
C1697      C1702   1.394       .  A
C1697      F1704   1.358       .  S
C1698      C1699   1.413       .  A
C1699      C1700   1.404       .  A
C1699      F1706   1.358       .  S
C1700      C1701   1.407       .  A
C1700      F1705   1.358       .  S
C1701      C1702   1.402       .  A
C1702      F1703   1.358       .  S
C1707      C1708   1.404       .  A
C1707      C1712   1.396       .  A
C1707      F1714   1.358       .  S
C1708      C1709   1.409       .  A
C1709      C1710   1.403       .  A
C1709      F1716   1.359       .  S
C1710      C1711   1.414       .  A
C1710      F1715   1.358       .  S
C1711      C1712   1.410       .  A
C1712      F1713   1.357       .  S
C1717      C1722   1.403       .  A
C1719      C1720   1.398       .  A
C1719      F1726   1.359       .  S
C1720      C1721   1.404       .  A
C1720      F1725   1.358       .  S
C1721      C1722   1.407       .  A
C1722      F1723   1.358       .  S
C1727      C1728   1.409       .  A
C1727      C1732   1.404       .  A
C1727      F1734   1.358       .  S
C1728      C1729   1.407       .  A
C1729      C1730   1.399       .  A
C1729      F1736   1.358       .  S
C1730      C1731   1.409       .  A
C1730      F1735   1.358       .  S
C1731      C1732   1.411       .  A
C1732      F1733   1.358       .  S
C1737      C1738   1.406       .  A
C1737      C1742   1.398       .  A
C1737      F1744   1.357       .  S
C1738      C1739   1.405       .  A
C1739      C1740   1.398       .  A
C1739      F1746   1.358       .  S
C1740      C1741   1.412       .  A
C1740      F1745   1.359       .  S
C1741      C2316   1.486       .  S
C1741      C1742   1.409       .  A
C1742      F2415   1.358       .  S
F1743      C2414   1.358       .  S
C1747      C1748   1.409       .  A
C1747      C1752   1.403       .  A
C1747      F1754   1.358       .  S
C1748      C1749   1.406       .  A
C1749      C1750   1.392       .  A
C1749      F1756   1.358       .  S
C1750      C1751   1.408       .  A
C1750      F1755   1.358       .  S
C1751      C1752   1.413       .  A
C1752      F1753   1.358       .  S
C1757      C1758   1.410       .  A
C1757      C1762   1.396       .  A
C1757      F1764   1.358       .  S
C1758      C1759   1.409       .  A
C1759      C1760   1.402       .  A
C1759      F1766   1.358       .  S
C1760      C1761   1.410       .  A
C1760      F1765   1.358       .  S
C1761      C1762   1.404       .  A
C1762      F1763   1.358       .  S
C1767      C2440   1.409   1_545  A
C1767      C1772   1.391       .  A
C1767      F1774   1.358       .  S
C1768      C2439   1.409       .  A
C1768      C1769   1.409       .  A
C1769      C2442   1.403       .  A
C1769      F1776   1.358       .  S
C1770      C2441   1.405       .  A
C1770      C1771   1.409       .  A
C1771      C1772   1.405       .  A
C1772      F1773   1.359       .  S
C1777      C1778   1.408       .  A
C1777      C1782   1.398       .  A
C1777      F1784   1.358       .  S
C1778      C1779   1.409       .  A
C1779      C1780   1.399       .  A
C1779      F1786   1.358       .  S
C1780      C1781   1.406       .  A
C1780      F1785   1.358       .  S
C1781      C1782   1.404       .  A
C1782      F1783   1.358       .  S
C1787      C1788   1.402       .  A
C1787      C1792   1.394       .  A
C1787      F1794   1.358       .  S
C1788      C1789   1.407       .  A
C1789      C1790   1.401       .  A
C1789      F1796   1.359       .  S
C1790      F1795   1.358   1_655  S
C1797      C1798   1.405       .  A
C1797      C1802   1.400   1_556  A
C1797      F1804   1.358       .  S
C1798      C1799   1.406       .  A
C1799      C1800   1.406   1_556  A
C1799      F1806   1.358       .  S
C1800      C1801   1.415       .  A
C1800      F1805   1.357       .  S
C1801      C1802   1.413       .  A
C1802      F1803   1.358       .  S
C1807      C1808   1.408       .  A
C1807      C1812   1.398       .  A
C1807      F1814   1.358       .  S
C1808      C1809   1.405       .  A
C1809      C1810   1.403       .  A
C1809      F1816   1.357       .  S
C1810      C1811   1.403       .  A
C1810      F1815   1.358       .  S
C1811      C1812   1.403       .  A
C1812      F1813   1.359       .  S
C1817      C1818   1.410       .  A
C1817      C1822   1.407       .  A
C1817      F1824   1.357       .  S
C1818      C1819   1.407       .  A
C1819      C1820   1.392       .  A
C1819      F1826   1.359       .  S
C1820      C1821   1.403       .  A
C1820      F1825   1.359       .  S
C1821      C1822   1.405       .  A
C1822      F1823   1.357       .  S
C1827      C1828   1.406       .  A
C1827      C1832   1.395       .  A
C1827      F1834   1.358       .  S
C1829      C1830   1.410   1_455  A
C1829      F1836   1.358       .  S
C1830      C1831   1.413       .  A
C1830      F1835   1.358       .  S
C1832      F1833   1.357       .  S
C1837      C1838   1.408       .  A
C1837      C1842   1.393       .  A
C1837      F1844   1.359       .  S
C1838      C1839   1.405       .  A
C1839      C1840   1.406       .  A
C1839      F1846   1.357       .  S
C1840      C1841   1.408       .  A
C1840      F1845   1.357       .  S
C1841      C1842   1.402       .  A
C1842      F1843   1.359       .  S
C1847      C1848   1.406       .  A
C1847      C1852   1.397       .  A
C1847      F1854   1.358       .  S
C1848      C1849   1.406       .  A
C1849      C1850   1.396       .  A
C1849      F1856   1.359       .  S
C1850      C1851   1.408       .  A
C1850      F1855   1.358       .  S
C1851      C1852   1.404       .  A
C1852      F1853   1.357       .  S
C1857      C1858   1.408       .  A
C1857      C1862   1.396       .  A
C1857      F1864   1.359       .  S
C1858      C2098   1.465   1_545  S
C1858      C1859   1.401       .  A
C1859      C1860   1.388       .  A
C1859      F1866   1.358       .  S
C1860      C1861   1.409       .  A
C1860      F1865   1.358       .  S
C1861      C1862   1.408       .  A
C1862      F1863   1.359       .  S
C1867      C1868   1.408       .  A
C1867      C1872   1.406       .  A
C1867      F1874   1.358       .  S
C1868      C1869   1.406       .  A
C1869      C1870   1.397       .  A
C1869      F1876   1.358       .  S
C1870      C1871   1.402       .  A
C1870      F1875   1.358       .  S
C1871      C1872   1.406       .  A
C1872      F1873   1.358       .  S
C1877      C1878   1.410       .  A
C1877      C1882   1.405       .  A
C1877      F1884   1.357       .  S
C1878      C1879   1.409       .  A
C1879      C2552   1.397       .  A
C1879      F2558   1.358       .  S
C1880      C2551   1.397   1_545  A
C1880      C1881   1.408       .  A
C1880      F1885   1.359       .  S
C1881      C2554   1.409       .  A
C1882      C2553   1.408       .  A
C1882      F1883   1.357       .  S
F1886      C2551   1.358       .  S
C1887      C1888   1.399       .  A
C1887      C1892   1.394       .  A
C1887      F1894   1.358       .  S
C1888      C1889   1.404       .  A
C1889      C1890   1.400       .  A
C1890      C1891   1.411       .  A
C1890      F1895   1.358       .  S
C1891      C1892   1.411       .  A
C1892      F1893   1.358       .  S
C1897      C1898   1.407       .  A
C1897      C1902   1.397       .  A
C1897      F1904   1.358       .  S
C1898      C1899   1.408       .  A
C1899      C1900   1.401       .  A
C1899      F1906   1.358       .  S
C1900      C1901   1.411       .  A
C1900      F1905   1.358       .  S
C1901      C1902   1.409       .  A
C1902      F1903   1.358       .  S
C1907      C1908   1.404       .  A
C1907      C1912   1.394       .  A
C1907      F1914   1.358       .  S
C1908      C1909   1.409       .  A
C1909      C1910   1.410       .  A
C1909      F1916   1.357       .  S
C1910      C1911   1.408       .  A
C1910      F1915   1.357       .  S
C1911      C1912   1.406       .  A
C1912      F1913   1.358       .  S
C1917      C1918   1.407       .  A
C1917      C1922   1.399       .  A
C1917      F1924   1.358       .  S
C1918      C2154   1.484       .  S
C1918      C1919   1.412       .  A
C1919      C1920   1.400       .  A
C1919      F2598   1.359       .  S
C1920      C1921   1.404       .  A
C1920      F1925   1.358       .  S
C1921      C1922   1.407       .  A
C1922      F1923   1.358       .  S
F1926      C2591   1.359       .  S
C1927      C1928   1.409       .  A
C1927      C1932   1.403       .  A
C1927      F1934   1.358       .  S
C1928      C1929   1.406       .  A
C1929      C1930   1.396       .  A
C1929      F1936   1.358       .  S
C1930      C1931   1.410       .  A
C1930      F1935   1.358       .  S
C1931      C1932   1.410       .  A
C1932      F1933   1.358       .  S
C1937      C1942   1.393       .  A
C1937      F1944   1.358       .  S
C1939      C1940   1.403       .  A
C1940      C1941   1.409       .  A
C1940      F1945   1.358       .  S
C1941      C1942   1.405       .  A
C1942      F1943   1.358       .  S
C1947      C1948   1.405       .  A
C1947      C1952   1.399       .  A
C1947      F1954   1.358       .  S
C1948      C1949   1.408       .  A
C1949      C1950   1.400       .  A
C1949      F1956   1.358       .  S
C1950      C1951   1.409       .  A
C1950      F1955   1.358       .  S
C1951      C1952   1.409       .  A
C1952      F1953   1.358       .  S
C1957      C1958   1.407       .  A
C1957      C1962   1.407       .  A
C1957      F1964   1.358       .  S
C1958      C1959   1.404       .  A
C1959      C1960   1.392       .  A
C1959      F1966   1.359       .  S
C1960      C1961   1.406       .  A
C1960      F1965   1.359       .  S
C1961      C1962   1.408       .  A
C1962      F1963   1.357       .  S
C1967      C1968   1.404       .  A
C1967      C1972   1.397       .  A
C1967      F1974   1.358       .  S
C1968      C1969   1.404       .  A
C1969      C1970   1.397       .  A
C1969      F1976   1.359       .  S
C1970      C1971   1.411       .  A
C1970      F1975   1.358       .  S
C1971      C1972   1.408       .  A
C1972      F1973   1.357       .  S
C1977      C1978   1.413       .  A
C1977      C2654   1.393       .  A
C1977      F1984   1.359       .  S
C1978      C2651   1.409       .  A
C1979      C2650   1.409   1_545  A
C1979      C1980   1.402       .  A
C1979      F1986   1.357   1_545  S
C1980      C1981   1.408       .  A
C1980      F1985   1.358       .  S
C1981      C1982   1.404       .  A
C1982      C2649   1.396       .  A
C1987      C1988   1.409       .  A
C1987      C1992   1.394       .  A
C1987      F1994   1.358       .  S
C1988      C1989   1.411       .  A
C1989      C1990   1.401       .  A
C1989      F1996   1.358       .  S
C1990      C1991   1.407       .  A
C1990      F1995   1.358       .  S
C1991      C1992   1.408       .  A
C1992      F1993   1.359       .  S
C1997      C2002   1.401       .  A
C1999      C2000   1.390       .  A
C1999      F2006   1.359       .  S
C2000      C2001   1.404       .  A
C2000      F2005   1.358       .  S
C2001      C2002   1.410       .  A
C2002      F2003   1.358       .  S
C2007      C2008   1.409       .  A
C2007      C2012   1.397       .  A
C2007      F2014   1.359       .  S
C2008      C2009   1.407       .  A
C2009      C2010   1.405       .  A
C2009      F2016   1.358       .  S
C2010      C2011   1.411       .  A
C2010      F2015   1.357       .  S
C2011      C2012   1.409       .  A
C2012      F2013   1.358       .  S
O2017     Ni2023   1.933       .  S
O2017      C2038   1.273       .  A
O2018     Ni2041   1.925       .  S
O2018      C2027   1.270       .  A
O2019     Ni2023   1.896       .  S
O2019     Ni2041   1.902       .  S
O2019     Ni2035   1.901       .  S
O2019      H2042   0.965       .  S
C2020      O2037   1.271       .  A
C2020      O2029   1.275       .  A
C2020      C2673   1.476       .  S
O2021     Ni2040   1.921       .  S
O2021      C2027   1.269       .  A
O2022     Ni2040   1.893       .  S
O2022      C2024   1.267       .  A
Ni2023     O2026   1.923       .  S
Ni2023     O2028   1.905       .  S
C2024      O2034   1.278       .  A
C2024      C2650   1.489       .  S
O2025     Ni2041   1.920       .  S
O2025      C2031   1.279       .  A
O2026      C2031   1.280       .  A
C2027      C2630   1.479       .  S
O2028      C2030   1.268       .  A
O2029     Ni2040   1.919       .  S
C2030      O2036   1.272       .  A
C2030      C2640   1.475       .  S
C2031      C2660   1.485       .  S
H2032      O2033   0.976       .  S
O2033     Ni2041   1.914       .  S
O2033     Ni2035   1.910       .  S
O2033     Ni2040   1.899       .  S
O2034     Ni2035   1.945       .  S
Ni2035     O2039   1.909       .  S
Ni2035     O2037   1.907       .  S
O2036     Ni2041   1.925       .  S
C2038      O2039   1.270       .  A
C2038      C2680   1.491       .  S
O2043     Ni2049   1.942       .  S
O2043      C2064   1.276       .  A
O2044     Ni2067   1.920       .  S
O2044      C2053   1.267       .  A
O2045     Ni2049   1.896       .  S
O2045     Ni2067   1.907       .  S
O2045     Ni2061   1.903       .  S
O2045      H2068   0.966       .  S
C2046      O2063   1.273       .  A
C2046      O2055   1.276       .  A
C2046      C2593   1.478       .  S
O2047     Ni2066   1.932       .  S
O2047      C2053   1.272       .  A
O2048     Ni2066   1.903       .  S
O2048      C2050   1.269       .  A
Ni2049     O2052   1.928       .  S
Ni2049     O2054   1.904       .  S
C2050      O2060   1.272       .  A
C2050      C2610   1.486       .  S
O2051     Ni2067   1.917       .  S
O2051      C2057   1.278       .  A
O2052      C2057   1.281       .  A
C2053      C2580   1.483       .  S
O2054      C2056   1.269       .  A
O2055     Ni2066   1.929       .  S
C2056      O2062   1.271       .  A
C2056      C2620   1.476       .  S
C2057      C2600   1.482       .  S
H2058      O2059   0.966       .  S
O2059     Ni2067   1.918       .  S
O2059     Ni2061   1.915       .  S
O2059     Ni2066   1.908       .  S
O2060     Ni2061   1.935       .  S
Ni2061     O2065   1.909       .  S
Ni2061     O2063   1.912       .  S
O2062     Ni2067   1.925       .  S
C2064      O2065   1.267       .  A
C2064      C2683   1.488       .  S
O2069     Ni2075   1.933       .  S
O2069      C2090   1.275       .  A
O2070     Ni2093   1.921       .  S
O2070      C2079   1.269       .  A
O2071     Ni2075   1.892       .  S
O2071     Ni2093   1.902       .  S
O2071     Ni2087   1.907       .  S
O2071      H2094   0.966       .  S
C2072      O2089   1.275       .  A
C2072      O2081   1.279   1_565  A
C2072      C2613   1.479       .  S
O2073     Ni2092   1.929       .  S
O2073      C2079   1.270       .  A
O2074     Ni2092   1.898       .  S
O2074      C2076   1.267       .  A
Ni2075     O2078   1.922       .  S
Ni2075     O2080   1.909       .  S
C2076      O2086   1.273       .  A
C2076      C2563   1.483       .  S
O2077     Ni2093   1.922       .  S
O2077      C2083   1.278       .  A
O2078      C2083   1.280       .  A
C2079      C2540   1.478       .  S
O2080      C2082   1.269       .  A
C2082      O2088   1.272       .  A
C2082      C2570   1.482       .  S
C2083      C2623   1.479       .  S
H2084      O2085   0.966       .  S
O2085     Ni2093   1.906       .  S
O2085     Ni2087   1.906       .  S
O2085     Ni2092   1.896       .  S
O2086     Ni2087   1.937       .  S
Ni2087     O2091   1.913       .  S
O2088     Ni2093   1.926       .  S
C2090      O2091   1.270       .  A
C2090      C2553   1.488       .  S
O2095     Ni2101   1.938       .  S
O2095      C2116   1.274       .  A
O2096     Ni2119   1.931       .  S
O2096      C2105   1.272       .  A
O2097     Ni2101   1.889       .  S
O2097     Ni2119   1.906       .  S
O2097     Ni2113   1.896       .  S
O2097      H2120   0.966       .  S
C2098      O2115   1.272       .  A
C2098      O2107   1.276       .  A
O2099     Ni2118   1.912       .  S
O2099      C2105   1.265       .  A
O2100     Ni2118   1.885       .  S
O2100      C2102   1.264       .  A
Ni2101     O2104   1.922       .  S
Ni2101     O2106   1.899       .  S
C2102      O2112   1.272       .  A
C2102      C2670   1.473       .  S
O2103     Ni2119   1.913       .  S
O2103      C2109   1.277       .  A
O2104      C2109   1.280       .  A
C2105      C2510   1.478       .  S
O2106      C2108   1.268       .  A
O2107     Ni2118   1.910       .  S
C2108      O2114   1.274       .  A
C2108      C2663   1.479       .  S
C2109      C2520   1.475       .  S
H2110      O2111   0.966       .  S
O2111     Ni2119   1.906       .  S
O2111     Ni2113   1.903       .  S
O2111     Ni2118   1.891       .  S
O2112     Ni2113   1.929       .  S
Ni2113     O2117   1.906       .  S
Ni2113     O2115   1.901       .  S
O2114     Ni2119   1.930       .  S
C2116      O2117   1.267       .  A
C2116      C2550   1.488       .  S
O2121     Ni2127   1.938       .  S
O2121      C2142   1.275       .  A
O2122     Ni2145   1.925       .  S
O2122      C2131   1.269       .  A
O2123     Ni2127   1.898       .  S
O2123     Ni2145   1.910       .  S
O2123     Ni2139   1.908       .  S
O2123      H2146   0.966       .  S
C2124      C2653   1.475   1_455  S
O2125     Ni2144   1.920       .  S
O2125      C2131   1.267       .  A
O2126     Ni2144   1.883       .  S
O2126      C2128   1.263       .  A
Ni2127     O2130   1.929       .  S
Ni2127     O2132   1.910       .  S
C2128      O2138   1.269       .  A
C2128      C2533   1.473       .  S
O2129     Ni2145   1.917       .  S
O2129      C2135   1.277       .  A
O2130      C2135   1.279       .  A
C2131      C2490   1.480       .  S
O2132      C2134   1.270       .  A
O2133     Ni2144   1.926       .  S
C2134      O2140   1.270       .  A
C2134      C2523   1.475       .  S
C2135      C2643   1.483       .  S
H2136      O2137   0.966       .  S
O2137     Ni2145   1.907       .  S
O2137     Ni2139   1.910       .  S
O2137     Ni2144   1.898       .  S
O2138     Ni2139   1.926       .  S
Ni2139     O2143   1.911       .  S
Ni2139     O2141   1.905       .  S
O2140     Ni2145   1.918       .  S
C2142      O2143   1.266       .  A
C2142      C2500   1.491       .  S
O2147     Ni2153   1.941       .  S
O2147      C2168   1.274       .  A
O2148     Ni2171   1.922       .  S
O2148      C2157   1.269       .  A
O2149     Ni2153   1.905       .  S
O2149     Ni2171   1.914       .  S
O2149     Ni2165   1.899       .  S
O2149      H2172   0.966       .  S
C2150      C2560   1.467       .  S
O2151     Ni2170   1.915       .  S
O2151      C2157   1.267       .  A
O2152     Ni2170   1.898       .  S
O2152      C2154   1.266       .  A
Ni2153     O2156   1.925       .  S
Ni2153     O2158   1.904       .  S
C2154      O2164   1.275       .  A
O2155     Ni2171   1.913       .  S
O2155      C2161   1.275       .  A
O2156      C2161   1.278       .  A
C2157      C2480   1.472       .  S
O2158      C2160   1.269       .  A
O2159     Ni2170   1.927       .  S
C2160      O2166   1.274       .  A
C2160      C2603   1.487       .  S
C2161      C2573   1.484       .  S
H2162      O2163   0.967       .  S
O2163     Ni2171   1.918       .  S
O2163     Ni2165   1.923       .  S
O2163     Ni2170   1.917       .  S
O2164     Ni2165   1.944       .  S
Ni2165     O2169   1.910       .  S
Ni2165     O2167   1.896       .  S
O2166     Ni2171   1.935       .  S
C2168      O2169   1.264       .  A
C2168      C2503   1.491       .  S
O2173     Ni2179   1.919       .  S
O2173      C2194   1.267       .  A
O2174     Ni2197   1.910       .  S
O2174      C2183   1.267       .  A
O2175     Ni2179   1.895       .  S
O2175     Ni2197   1.908       .  S
O2175     Ni2191   1.911       .  S
O2175      H2198   0.965       .  S
C2176      O2193   1.278       .  A
C2176      O2185   1.280       .  A
C2176      C2450   1.479       .  S
O2177     Ni2196   1.940       .  S
O2177      C2183   1.275       .  A
O2178     Ni2196   1.910       .  S
O2178      C2180   1.270       .  A
Ni2179     O2182   1.921       .  S
Ni2179     O2184   1.894       .  S
C2180      O2190   1.271       .  A
C2180      C2433   1.483       .  S
O2181     Ni2197   1.911       .  S
O2181      C2187   1.274       .  A
O2182      C2187   1.277       .  A
C2183      C2470   1.486       .  S
O2184      C2186   1.266       .  A
O2185     Ni2196   1.925       .  S
C2186      O2192   1.273       .  A
C2186      C2440   1.485       .  S
C2187      C2460   1.474       .  S
H2188      O2189   0.967       .  S
O2189     Ni2197   1.905       .  S
O2189     Ni2191   1.912       .  S
O2189     Ni2196   1.898       .  S
O2190     Ni2191   1.924       .  S
Ni2191     O2195   1.936       .  S
Ni2191     O2193   1.918       .  S
O2192     Ni2197   1.937       .  S
C2194      O2195   1.271       .  A
C2194      C2633   1.485       .  S
O2199     Ni2205   1.924       .  S
O2199      C2220   1.269       .  A
O2200     Ni2223   1.911       .  S
O2200      C2209   1.269       .  A
O2201     Ni2205   1.903       .  S
O2201     Ni2223   1.913       .  S
O2201     Ni2217   1.916       .  S
O2201      H2224   0.966       .  S
C2202      O2219   1.278       .  A
C2202      O2211   1.281       .  A
C2202      C2423   1.488       .  S
O2203     Ni2222   1.944       .  S
O2203      C2209   1.277       .  A
O2204     Ni2222   1.905       .  S
O2204      C2206   1.270       .  A
Ni2205     O2208   1.931       .  S
Ni2205     O2210   1.902       .  S
C2206      O2216   1.275       .  A
C2206      C2400   1.484       .  S
O2207     Ni2223   1.917       .  S
O2207      C2213   1.276       .  A
O2208      C2213   1.277       .  A
C2209      C2473   1.499       .  S
O2210      C2212   1.267       .  A
O2211     Ni2222   1.924       .  S
C2212      O2218   1.274       .  A
C2212      C2390   1.488   1_655  S
C2213      C2410   1.481       .  S
H2214      O2215   0.966       .  S
O2215     Ni2223   1.905       .  S
O2215     Ni2217   1.910       .  S
O2215     Ni2222   1.894       .  S
O2216     Ni2217   1.935       .  S
Ni2217     O2221   1.932       .  S
Ni2217     O2219   1.921       .  S
O2218     Ni2223   1.943       .  S
C2220      O2221   1.270       .  A
C2220      C2583   1.486       .  S
O2225     Ni2231   1.918       .  S
O2225      C2246   1.268       .  A
O2226     Ni2249   1.905       .  S
O2226      C2235   1.267       .  A
O2227     Ni2231   1.912       .  S
O2227     Ni2249   1.920       .  S
O2227     Ni2243   1.930       .  S
O2227      H2250   0.966       .  S
C2228      O2245   1.279       .  A
C2228      O2237   1.278       .  A
C2228      C2403   1.488       .  S
O2229     Ni2248   1.936       .  S
O2229      C2235   1.272       .  A
O2230     Ni2248   1.902       .  S
O2230      C2232   1.268       .  A
Ni2231     O2236   1.898       .  S
C2232      O2242   1.271       .  A
C2232      C2380   1.482       .  S
O2233      C2239   1.271       .  A
O2234      C2239   1.272       .  A
C2235      C2363   1.485       .  S
O2236      C2238   1.270       .  A
O2237     Ni2248   1.923       .  S
C2238      O2244   1.278       .  A
C2238      C2370   1.492       .  S
C2239      C2393   1.478       .  S
H2240      O2241   0.967       .  S
O2241     Ni2249   1.902       .  S
O2241     Ni2243   1.905       .  S
O2241     Ni2248   1.905       .  S
O2242     Ni2243   1.925       .  S
Ni2243     O2247   1.918       .  S
Ni2243     O2245   1.927       .  S
O2244     Ni2249   1.947       .  S
C2246      O2247   1.269       .  A
C2246      C2543   1.471       .  S
O2251     Ni2257   1.927       .  S
O2251      C2272   1.272       .  A
O2252     Ni2275   1.910       .  S
O2252      C2261   1.267       .  A
O2253     Ni2257   1.904       .  S
O2253     Ni2275   1.914       .  S
O2253     Ni2269   1.916       .  S
O2253      H2276   0.967       .  S
C2254      O2271   1.277       .  A
C2254      O2263   1.278       .  A
C2254      C2340   1.490       .  S
O2255     Ni2274   1.933       .  S
O2255      C2261   1.273       .  A
O2256     Ni2274   1.904       .  S
O2256      C2258   1.268       .  A
Ni2257     O2260   1.926       .  S
Ni2257     O2262   1.904       .  S
C2258      O2268   1.271       .  A
C2258      C2453   1.476       .  S
O2259     Ni2275   1.910       .  S
O2259      C2265   1.271       .  A
O2260      C2265   1.275       .  A
C2261      C2360   1.484       .  S
O2262      C2264   1.269       .  A
O2263     Ni2274   1.920       .  S
C2264      O2270   1.274       .  A
C2264      C2463   1.486       .  S
H2266      O2267   0.966       .  S
O2267     Ni2275   1.905       .  S
O2267     Ni2269   1.905       .  S
O2267     Ni2274   1.897       .  S
O2268     Ni2269   1.924       .  S
Ni2269     O2273   1.912       .  S
Ni2269     O2271   1.925       .  S
O2270     Ni2275   1.936       .  S
C2272      O2273   1.266       .  A
C2272      C2513   1.477       .  S
O2277     Ni2283   1.916       .  S
O2277      C2298   1.268       .  A
O2278     Ni2301   1.905       .  S
O2278      C2287   1.264       .  A
O2279     Ni2283   1.908       .  S
O2279     Ni2301   1.921       .  S
O2279     Ni2295   1.923       .  S
O2279      H2302   0.966       .  S
C2280      O2297   1.276       .  A
C2280      O2289   1.275       .  A
C2280      C2430   1.484       .  S
O2281     Ni2300   1.930       .  S
O2281      C2287   1.272       .  A
O2282     Ni2300   1.903       .  S
O2282      C2284   1.270       .  A
Ni2283     O2286   1.915       .  S
Ni2283     O2288   1.889       .  S
C2284      O2294   1.271       .  A
C2284      C2343   1.487       .  S
O2285     Ni2301   1.911       .  S
C2287      C2333   1.487       .  S
O2288      C2290   1.267       .  A
O2289     Ni2300   1.916       .  S
C2290      O2296   1.272       .  A
C2290      C2353   1.480       .  S
C2291      C2443   1.474       .  S
H2292      O2293   0.966       .  S
O2293     Ni2301   1.905       .  S
O2293     Ni2295   1.910       .  S
O2293     Ni2300   1.901       .  S
O2294     Ni2295   1.927       .  S
Ni2295     O2299   1.910       .  S
Ni2295     O2297   1.924       .  S
O2296     Ni2301   1.930       .  S
C2298      O2299   1.265       .  A
C2298      C2493   1.468       .  S
O2303     Ni2309   1.922       .  S
O2303      C2324   1.271       .  A
O2304     Ni2327   1.914       .  S
O2304      C2313   1.268       .  A
O2305     Ni2309   1.908       .  S
O2305     Ni2327   1.917       .  S
O2305     Ni2321   1.922       .  S
O2305      H2328   0.966       .  S
C2306      O2323   1.277       .  A
C2306      O2315   1.278       .  A
C2306      C2383   1.493       .  S
O2307     Ni2326   1.932       .  S
O2307      C2313   1.273       .  A
O2308     Ni2326   1.897       .  S
O2308      C2310   1.268       .  A
Ni2309     O2312   1.931       .  S
Ni2309     O2314   1.897       .  S
C2310      O2320   1.271       .  A
C2310      C2420   1.480       .  S
O2311     Ni2327   1.911       .  S
C2313      C2330   1.484       .  S
O2314      C2316   1.267       .  A
O2315     Ni2326   1.924       .  S
C2316      O2322   1.276       .  A
C2317      C2373   1.478       .  S
H2318      O2319   0.966       .  S
O2319     Ni2327   1.908       .  S
O2319     Ni2321   1.905       .  S
O2319     Ni2326   1.898       .  S
O2320     Ni2321   1.924       .  S
Ni2321     O2325   1.909       .  S
Ni2321     O2323   1.928       .  S
O2322     Ni2327   1.941       .  S
C2324      O2325   1.266       .  A
C2324      C2483   1.470       .  S
C2329      C2330   1.407       .  A
C2329      C2334   1.406   1_654  A
C2329      F2336   1.357       .  S
C2331      C2332   1.394   1_554  A
C2331      F2338   1.358       .  S
C2332      C2333   1.409       .  A
C2332      F2337   1.358       .  S
C2334      F2335   1.358       .  S
C2339      C2340   1.409       .  A
C2339      C2344   1.392       .  A
C2339      F2346   1.358       .  S
C2340      C2341   1.414       .  A
C2341      C2342   1.405       .  A
C2341      F2348   1.358       .  S
C2342      C2343   1.411       .  A
C2342      F2347   1.358       .  S
C2343      C2344   1.407       .  A
C2344      F2345   1.358       .  S
C2349      C2350   1.408       .  A
C2349      C2354   1.401       .  A
C2350      C2351   1.404       .  A
C2351      C2352   1.391       .  A
C2351      F2358   1.358       .  S
C2352      C2353   1.408       .  A
C2352      F2357   1.359       .  S
C2353      C2354   1.410       .  A
C2354      F2355   1.359       .  S
C2359      C2360   1.407       .  A
C2359      C2364   1.404   1_566  A
C2359      F2366   1.358       .  S
C2360      C2361   1.408       .  A
C2361      F2368   1.358       .  S
C2362      C2363   1.410       .  A
C2362      F2367   1.358       .  S
C2369      C2370   1.413       .  A
C2369      C2374   1.395       .  A
C2369      F2376   1.358       .  S
C2370      C2371   1.413       .  A
C2371      C2372   1.405       .  A
C2371      F2378   1.358       .  S
C2372      C2373   1.407       .  A
C2372      F2377   1.358       .  S
C2373      C2374   1.403       .  A
C2374      F2375   1.358       .  S
C2379      C2380   1.405       .  A
C2379      C2384   1.396       .  A
C2379      F2386   1.358       .  S
C2380      C2381   1.408       .  A
C2381      C2382   1.404       .  A
C2381      F2388   1.359       .  S
C2382      C2383   1.413       .  A
C2382      F2387   1.358       .  S
C2383      C2384   1.410       .  A
C2384      F2385   1.357       .  S
C2389      C2394   1.404       .  A
C2391      C2392   1.399       .  A
C2391      F2398   1.359       .  S
C2392      C2393   1.405       .  A
C2392      F2397   1.359       .  S
C2393      C2394   1.407       .  A
C2394      F2395   1.358       .  S
C2399      C2400   1.409       .  A
C2399      C2404   1.404       .  A
C2399      F2406   1.358       .  S
C2400      C2401   1.407       .  A
C2401      C2402   1.398       .  A
C2401      F2408   1.358       .  S
C2402      C2403   1.409       .  A
C2402      F2407   1.358       .  S
C2403      C2404   1.411       .  A
C2404      F2405   1.358       .  S
C2409      C2410   1.406       .  A
C2409      C2414   1.398       .  A
C2409      F2416   1.357       .  S
C2410      C2411   1.406       .  A
C2411      C2412   1.401       .  A
C2411      F2418   1.358       .  S
C2412      C2413   1.412       .  A
C2412      F2417   1.359       .  S
C2413      C2414   1.409       .  A
C2419      C2420   1.409       .  A
C2419      C2424   1.402       .  A
C2419      F2426   1.358       .  S
C2420      C2421   1.405       .  A
C2421      C2422   1.392       .  A
C2421      F2428   1.359       .  S
C2422      C2423   1.409       .  A
C2422      F2427   1.358       .  S
C2423      C2424   1.413       .  A
C2424      F2425   1.358       .  S
C2429      C2430   1.409       .  A
C2429      C2434   1.397       .  A
C2429      F2436   1.358       .  S
C2430      C2431   1.408       .  A
C2431      C2432   1.402       .  A
C2431      F2438   1.358       .  S
C2432      C2433   1.410       .  A
C2432      F2437   1.358       .  S
C2433      C2434   1.406       .  A
C2434      F2435   1.358       .  S
C2439      C2444   1.393       .  A
C2439      F2446   1.358       .  S
C2440      C2441   1.410   1_565  A
C2441      F2448   1.358   1_545  S
C2442      C2443   1.408       .  A
C2443      C2444   1.403       .  A
C2444      F2445   1.358       .  S
C2449      C2450   1.408       .  A
C2449      C2454   1.397       .  A
C2449      F2456   1.358       .  S
C2450      C2451   1.408       .  A
C2451      C2452   1.399       .  A
C2451      F2458   1.358       .  S
C2452      C2453   1.407       .  A
C2452      F2457   1.358       .  S
C2453      C2454   1.405       .  A
C2454      F2455   1.358       .  S
C2459      C2460   1.403       .  A
C2459      C2464   1.397       .  A
C2459      F2466   1.358       .  S
C2460      C2461   1.407       .  A
C2461      C2462   1.400       .  A
C2461      F2468   1.359       .  S
C2462      F2467   1.358   1_655  S
C2469      C2470   1.406       .  A
C2469      C2474   1.399   1_556  A
C2469      F2476   1.359       .  S
C2470      C2471   1.406       .  A
C2471      C2472   1.407   1_556  A
C2471      F2478   1.358       .  S
C2472      C2473   1.415       .  A
C2472      F2477   1.357       .  S
C2473      C2474   1.413       .  A
C2474      F2475   1.358       .  S
C2479      C2480   1.407       .  A
C2479      C2484   1.396       .  A
C2479      F2486   1.358       .  S
C2480      C2481   1.406       .  A
C2481      C2482   1.403       .  A
C2481      F2488   1.357       .  S
C2482      C2483   1.404       .  A
C2482      F2487   1.358       .  S
C2483      C2484   1.404       .  A
C2484      F2485   1.359       .  S
C2489      C2490   1.409       .  A
C2489      C2494   1.405       .  A
C2489      F2496   1.357       .  S
C2490      C2491   1.409       .  A
C2491      C2492   1.393       .  A
C2491      F2498   1.359       .  S
C2492      C2493   1.403       .  A
C2492      F2497   1.359       .  S
C2493      C2494   1.403       .  A
C2494      F2495   1.357       .  S
C2499      C2500   1.407       .  A
C2499      C2504   1.394       .  A
C2499      F2506   1.358       .  S
C2501      C2502   1.411   1_455  A
C2501      F2508   1.358       .  S
C2502      C2503   1.413       .  A
C2502      F2507   1.358       .  S
C2504      F2505   1.358       .  S
C2509      C2510   1.409       .  A
C2509      C2514   1.392       .  A
C2509      F2516   1.359       .  S
C2510      C2511   1.406       .  A
C2511      C2512   1.407       .  A
C2511      F2518   1.357       .  S
C2512      C2513   1.408       .  A
C2512      F2517   1.357       .  S
C2513      C2514   1.403       .  A
C2514      F2515   1.359       .  S
C2519      C2520   1.407       .  A
C2519      C2524   1.397       .  A
C2519      F2526   1.358       .  S
C2520      C2521   1.407       .  A
C2521      C2522   1.397       .  A
C2521      F2528   1.358       .  S
C2522      C2523   1.407       .  A
C2522      F2527   1.358       .  S
C2523      C2524   1.405       .  A
C2524      F2525   1.358       .  S
C2529      C2530   1.409       .  A
C2529      C2534   1.396       .  A
C2529      F2536   1.359       .  S
C2530      C2531   1.400       .  A
C2531      C2532   1.387       .  A
C2531      F2538   1.358       .  S
C2532      C2533   1.410       .  A
C2532      F2537   1.358       .  S
C2533      C2534   1.408       .  A
C2534      F2535   1.359       .  S
C2539      C2540   1.407       .  A
C2539      C2544   1.405       .  A
C2539      F2546   1.358       .  S
C2540      C2541   1.405       .  A
C2541      C2542   1.398       .  A
C2541      F2548   1.358       .  S
C2542      C2543   1.403       .  A
C2542      F2547   1.358       .  S
C2543      C2544   1.406       .  A
C2544      F2545   1.358       .  S
C2549      C2550   1.409       .  A
C2549      C2554   1.404   1_565  A
C2549      F2556   1.357       .  S
C2550      C2551   1.410       .  A
C2552      C2553   1.409       .  A
C2552      F2557   1.359       .  S
C2554      F2555   1.358       .  S
C2559      C2560   1.401       .  A
C2559      C2564   1.396       .  A
C2559      F2566   1.358       .  S
C2560      C2561   1.404       .  A
C2561      C2562   1.400       .  A
C2562      C2563   1.410       .  A
C2562      F2567   1.358       .  S
C2563      C2564   1.411       .  A
C2564      F2565   1.358       .  S
C2569      C2570   1.407       .  A
C2569      C2574   1.397       .  A
C2569      F2576   1.358       .  S
C2570      C2571   1.408       .  A
C2571      C2572   1.401       .  A
C2571      F2578   1.358       .  S
C2572      C2573   1.410       .  A
C2572      F2577   1.358       .  S
C2573      C2574   1.408       .  A
C2574      F2575   1.358       .  S
C2579      C2580   1.404       .  A
C2579      C2584   1.394       .  A
C2579      F2586   1.358       .  S
C2580      C2581   1.410       .  A
C2581      C2582   1.411       .  A
C2581      F2588   1.358       .  S
C2582      C2583   1.409       .  A
C2582      F2587   1.357       .  S
C2583      C2584   1.406       .  A
C2584      F2585   1.358       .  S
C2589      C2590   1.406       .  A
C2589      C2594   1.398       .  A
C2589      F2596   1.358   1_565  S
C2590      C2591   1.412       .  A
C2591      C2592   1.400       .  A
C2592      C2593   1.405       .  A
C2592      F2597   1.358       .  S
C2593      C2594   1.408       .  A
C2594      F2595   1.358       .  S
C2599      C2600   1.409       .  A
C2599      C2604   1.402       .  A
C2599      F2606   1.358       .  S
C2600      C2601   1.406       .  A
C2601      C2602   1.397       .  A
C2601      F2608   1.358       .  S
C2602      C2603   1.409       .  A
C2602      F2607   1.358       .  S
C2603      C2604   1.411       .  A
C2604      F2605   1.358       .  S
C2609      C2614   1.394       .  A
C2609      F2616   1.358       .  S
C2611      C2612   1.405       .  A
C2612      C2613   1.409       .  A
C2612      F2617   1.359       .  S
C2613      C2614   1.403       .  A
C2614      F2615   1.358       .  S
C2619      C2620   1.404       .  A
C2619      C2624   1.396       .  A
C2619      F2626   1.357       .  S
C2620      C2621   1.409       .  A
C2621      C2622   1.401       .  A
C2621      F2628   1.359       .  S
C2622      C2623   1.409       .  A
C2622      F2627   1.359       .  S
C2623      C2624   1.407       .  A
C2624      F2625   1.358       .  S
C2629      C2630   1.408       .  A
C2629      C2634   1.411       .  A
C2629      F2636   1.358       .  S
C2630      C2631   1.404       .  A
C2631      C2632   1.394       .  A
C2631      F2638   1.359       .  S
C2632      C2633   1.407       .  A
C2632      F2637   1.358       .  S
C2633      C2634   1.410       .  A
C2634      F2635   1.357       .  S
C2639      C2640   1.406       .  A
C2639      C2644   1.400       .  A
C2639      F2646   1.358       .  S
C2640      C2641   1.405       .  A
C2641      C2642   1.398       .  A
C2641      F2648   1.358       .  S
C2642      C2643   1.410       .  A
C2642      F2647   1.358       .  S
C2643      C2644   1.409       .  A
C2644      F2645   1.358       .  S
C2649      C2650   1.414   1_545  A
C2649      F2656   1.359       .  S
C2651      C2652   1.400       .  A
C2651      F2658   1.358       .  S
C2652      C2653   1.407       .  A
C2652      F2657   1.358       .  S
C2653      C2654   1.403       .  A
C2659      C2660   1.409       .  A
C2659      C2664   1.396       .  A
C2659      F2666   1.358       .  S
C2660      C2661   1.411       .  A
C2661      C2662   1.399       .  A
C2661      F2668   1.358       .  S
C2662      C2663   1.406       .  A
C2662      F2667   1.358       .  S
C2663      C2664   1.408       .  A
C2664      F2665   1.359       .  S
C2669      C2674   1.400       .  A
C2671      C2672   1.392       .  A
C2671      F2678   1.359       .  S
C2672      C2673   1.404       .  A
C2672      F2677   1.358       .  S
C2673      C2674   1.411       .  A
C2674      F2675   1.358       .  S
C2679      C2680   1.412       .  A
C2679      C2684   1.397       .  A
C2679      F2686   1.359       .  S
C2680      C2681   1.409       .  A
C2681      C2682   1.406       .  A
C2681      F2688   1.357       .  S
C2682      C2683   1.410       .  A
C2682      F2687   1.357       .  S
C2683      C2684   1.407       .  A
C2684      F2685   1.358       .  S
