geometry optimzed in LAMMPS
_audit_creation_date              2020-12-01 
_audit_creation_method            'lammps2cif' 
_symmetry_space_group_name_H-M    'P1' 
_symmetry_Int_Tables_number       1 
_symmetry_cell_setting            triclinic 
loop_ 
_symmetry_equiv_pos_as_xyz 
  x,y,z 
_cell_length_a                    35.90446449 
_cell_length_b                    35.93169009159865 
_cell_length_c                    30.853272735868334 
_cell_angle_alpha                 90.15137056545456 
_cell_angle_beta                  89.83647157002281 
_cell_angle_gamma                 120.32927786517966 
loop_ 
_atom_site_label 
_atom_site_type_symbol 
_atom_site_fract_x 
_atom_site_fract_y 
_atom_site_fract_z 
_atom_site_charge 
O1          O  0.52990587  0.83042091  0.27084200    -0.80100
C2          C  0.43987840  0.65912646  0.25934660     0.99300
O3          O  0.43687010  0.68998452  0.24349236    -0.69200
O4          O  0.45046886  0.76925305  0.24182360    -0.72800
Al5        Al  0.48294931  0.74325825  0.22583212     1.49000
C6          C  0.43707591  0.77334640  0.27780282     0.94500
O7          O  0.49463869  0.74544414  0.36395637    -0.79000
O8          O  0.58540015  0.75694393  0.30535448    -0.72600
Al9        Al  0.51271994  0.78512635  0.31509640     1.90100
O10         O  0.50782990  0.69579782  0.34071710    -0.71600
O11         O  0.55739784  0.71939509  0.22983615    -0.71500
O12         O  0.47607787  0.66198389  0.26749155    -0.77100
O13         O  0.50468281  0.71450974  0.19194259    -0.75300
O14         O  0.50936837  0.74711545  0.27577956    -1.11500
O15         O  0.52869664  0.79794068  0.20860772    -0.70700
C16         C  0.53629738  0.83150354  0.22984543     1.00100
C17         C  0.49293363  0.70966008  0.36886289     0.96400
Al18       Al  0.53023491  0.71192102  0.28508751     1.55600
O19         O  0.45348972  0.76929730  0.31193038    -0.75300
C20         C  0.53594528  0.70863649  0.19555571     1.00600
C21         C  0.59755112  0.79406740  0.32059756     0.95500
O22         O  0.57176377  0.80764034  0.32567822    -0.80600
O23         O  0.74841170  0.86344019  0.34937514    -0.80100
C24         C  0.88054803  0.01186906  0.41541323     0.99300
O25         O  0.84432389  0.00901914  0.40740112    -0.69200
O26         O  0.81216976  0.97504183  0.33436678    -0.72800
Al27       Al  0.79003635  0.95906963  0.39008046     1.49000
C28         C  0.82725170  0.96130109  0.30629587     0.94500
O29         O  0.86662580  0.90150764  0.36299554    -0.79000
O30         O  0.79173921  0.87320698  0.46648654    -0.72600
Al31       Al  0.80744353  0.88583413  0.35994562     1.90100
O32         O  0.86982987  0.90163143  0.43307615    -0.71600
O33         O  0.81606213  0.95677584  0.48308576    -0.71500
O34         O  0.88359435  0.98101082  0.43122897    -0.77100
O35         O  0.76315653  0.95177169  0.44546244    -0.75300
O36         O  0.81092417  0.92388291  0.39927404    -1.11500
O37         O  0.73476035  0.91401876  0.37009460    -0.70700
C38         C  0.72260340  0.87695256  0.35469545     1.00100
C39         C  0.88314836  0.89752295  0.39706289     0.96400
Al40       Al  0.83751320  0.92780319  0.44910906     1.55600
O41         O  0.82563403  0.92556115  0.31117163    -0.75300
C42         C  0.78483356  0.96271893  0.47959918     1.00600
C43         C  0.78386289  0.83955904  0.44523609     0.95500
O44         O  0.79016346  0.84055739  0.40422409    -0.80600
O45         O  0.16521872  0.71029905  0.27136168    -0.80100
C46         C  0.33685687  0.79182251  0.26117445     0.99300
O47         O  0.30585479  0.75777609  0.24513994    -0.69200
O48         O  0.22620092  0.69181333  0.24278708    -0.72800
Al49       Al  0.25284602  0.75052598  0.22706320     1.49000
C50         C  0.22142143  0.67415768  0.27869335     0.94500
O51         O  0.24951813  0.75996547  0.36503776    -0.79000
O52         O  0.23931481  0.83980489  0.30622463    -0.72600
Al53       Al  0.21016933  0.73843377  0.31594261     1.90100
O54         O  0.29968049  0.82323362  0.34242163    -0.71600
O55         O  0.27784944  0.84939262  0.23118290    -0.71500
O56         O  0.33420605  0.82523107  0.26959241    -0.77100
O57         O  0.28230077  0.80116498  0.19339733    -0.75300
O58         O  0.24877765  0.77322028  0.27695344    -1.11500
O59         O  0.19846156  0.74152983  0.20936170    -0.70700
C60         C  0.16459608  0.71548095  0.23034466     1.00100
C61         C  0.28545597  0.79417842  0.37027083     0.96400
Al62       Al  0.28432693  0.82955028  0.28657584     1.55600
O63         O  0.22527375  0.69465972  0.31288044    -0.75300
C64         C  0.28866401  0.83852310  0.19701518     1.00600
C65         C  0.20195682  0.81475577  0.32121038     0.95500
O66         O  0.18811145  0.77525488  0.32640116    -0.80600
O67         O  0.13262760  0.89628940  0.34825054    -0.80100
C68         C  0.98382495  0.87969735  0.41328206     0.99300
O69         O  0.98658045  0.84632084  0.40498666    -0.69200
O70         O  0.02127416  0.84807439  0.33233259    -0.72800
Al71       Al  0.03654771  0.84202249  0.38827858     1.49000
C72         C  0.03529699  0.87712555  0.30448840     0.94500
O73         O  0.09548059  0.97690875  0.36156503    -0.79000
O74         O  0.12215445  0.93024099  0.46529916    -0.72600
Al75       Al  0.11055661  0.93311145  0.35866101     1.90100
O76         O  0.09449471  0.97988190  0.43163182    -0.71600
O77         O  0.03824634  0.87067042  0.48127252    -0.71500
O78         O  0.01479860  0.91386195  0.42918663    -0.77100
O79         O  0.04295075  0.82241112  0.44383405    -0.75300
O80         O  0.07197565  0.89839830  0.39770484    -1.11500
O81         O  0.08167429  0.83182044  0.36892583    -0.70700
C82         C  0.11894103  0.85685529  0.35373477     1.00100
C83         C  0.09929473  0.99746838  0.39569010     0.96400
Al84       Al  0.06780439  0.92120596  0.44745726     1.55600
O85         O  0.07112741  0.91147439  0.30965606    -0.75300
C86         C  0.03191112  0.83331115  0.47783599     1.00600
C87         C  0.15607673  0.95613823  0.44429529     0.95500
O88         O  0.15551214  0.96128134  0.40325523    -0.80600
O89         O  0.28448069  0.46663054  0.26982839    -0.80100
C90         C  0.20233625  0.55525225  0.26091312     0.99300
O91         O  0.23637391  0.55878528  0.24451711    -0.69200
O92         O  0.30258332  0.54609927  0.24142296    -0.72800
Al93       Al  0.24382170  0.51325647  0.22604638     1.49000
C94         C  0.32045634  0.55920863  0.27723267     0.94500
O95         O  0.23517231  0.50096334  0.36391448    -0.79000
O96         O  0.15517715  0.40955361  0.30524189    -0.72600
Al97       Al  0.25653013  0.48328765  0.31466724     1.90100
O98         O  0.17148109  0.48643640  0.34187653    -0.71600
O99         O  0.14494626  0.43815577  0.23035956    -0.71500
O100        O  0.16901452  0.51880301  0.26929927    -0.77100
O101        O  0.19307051  0.49131013  0.19262655    -0.75300
O102        O  0.22140218  0.48634566  0.27594048    -1.11500
O103        O  0.25304582  0.46812613  0.20798884    -0.70700
C104        C  0.27912889  0.46059478  0.22882588     1.00100
C105        C  0.20074529  0.50188079  0.36952402     0.96400
Al106      Al  0.16502882  0.46473642  0.28586705     1.55600
O107        O  0.30012329  0.54255775  0.31149655    -0.75300
C108        C  0.15576329  0.45984170  0.19620870     1.00600
C109        C  0.18049129  0.39794768  0.32033015     0.95500
O110        O  0.21997572  0.42422523  0.32534253    -0.80600
O111        O  0.14921216  0.18549426  0.33302322    -0.80100
C112        C  0.04132703  0.21078519  0.44597474     0.99300
O113        O  0.03597538  0.20478322  0.40495277    -0.69200
O114        O  0.10040645  0.24704349  0.34928211    -0.72800
Al115      Al  0.06385508  0.18799180  0.36012712     1.49000
C116        C  0.13979403  0.27349415  0.35466994     0.94500
O117        O  0.17527243  0.23313744  0.44482583    -0.79000
O118        O  0.08400198  0.11252638  0.43001934    -0.72600
Al119      Al  0.15538501  0.20684755  0.38915533     1.90100
O120        O  0.12715243  0.17970132  0.48223296    -0.71600
O121        O  0.01771079  0.12517045  0.43335953    -0.71500
O122        O  0.06725117  0.20304538  0.46685605    -0.77100
O123        O  0.02021246  0.12873383  0.36331561    -0.75300
O124        O  0.09896396  0.18502519  0.39891795    -1.11500
O125        O  0.08523130  0.17012388  0.31106125    -0.70700
C126        C  0.11985538  0.16957692  0.30548907     1.00100
C127        C  0.16444501  0.21121809  0.47882516     0.96400
Al128      Al  0.07648307  0.15795842  0.44870624     1.55600
O129        O  0.16512005  0.26206637  0.37009969    -0.75300
C130        C  0.99986360  0.11204461  0.39755107     1.00600
C131        C  0.11811116  0.11620604  0.41362122     0.95500
O132        O  0.15143338  0.15272477  0.40542277    -0.80600
O133        O  0.52132551  0.09050897  0.49309255    -0.80100
C134        C  0.66983665  0.22261639  0.42694866     0.99300
O135        O  0.66699987  0.18642968  0.43498743    -0.69200
O136        O  0.63303241  0.15425518  0.50804205    -0.72800
Al137      Al  0.61703096  0.13216800  0.45232226     1.49000
C138        C  0.61928874  0.16931234  0.53613586     0.94500
O139        O  0.55941947  0.20867894  0.47952569    -0.79000
O140        O  0.53103899  0.13386735  0.37603105    -0.72600
Al141      Al  0.54373505  0.14952515  0.48255515     1.90100
O142        O  0.55951102  0.21190196  0.40944445    -0.71600
O143        O  0.61465498  0.15818552  0.35932116    -0.71500
O144        O  0.63893718  0.22564677  0.41117209    -0.77100
O145        O  0.60972789  0.10534129  0.39693083    -0.75300
O146        O  0.58180026  0.15302989  0.44318211    -1.11500
O147        O  0.57195613  0.07691385  0.47229503    -0.70700
C148        C  0.53485219  0.06472802  0.48770194     1.00100
C149        C  0.55545332  0.22522745  0.44546836     0.96400
Al150      Al  0.58568254  0.17960508  0.39335508     1.55600
O151        O  0.58351270  0.16768211  0.53129683    -0.75300
C152        C  0.62063845  0.12700210  0.36278721     1.00600
C153        C  0.49737902  0.12599174  0.39731691     0.95500
O154        O  0.49840225  0.13228254  0.43832813    -0.80600
O155        O  0.48866874  0.87203554  0.57088840    -0.80100
C156        C  0.31721376  0.78164226  0.58242225     0.99300
O157        O  0.34817683  0.77873248  0.59818718    -0.69200
O158        O  0.42756937  0.79254952  0.59973780    -0.72800
Al159      Al  0.40141923  0.82484833  0.61585332     1.49000
C160        C  0.43170836  0.77926374  0.56371902     0.94500
O161        O  0.40372819  0.83689195  0.47772786    -0.79000
O162        O  0.41479792  0.92722943  0.53651170    -0.72600
Al163      Al  0.44337262  0.85490262  0.52662678     1.90100
O164        O  0.35380062  0.84967000  0.50106935    -0.71600
O165        O  0.37721181  0.89901833  0.61199495    -0.71500
O166        O  0.31997098  0.81776654  0.57425789    -0.77100
O167        O  0.37251198  0.84637673  0.64981566    -0.75300
O168        O  0.40521974  0.85130841  0.56595574    -1.11500
O169        O  0.45606732  0.87063189  0.63311765    -0.70700
C170        C  0.48969252  0.87831336  0.61189635     1.00100
C171        C  0.36781905  0.83498572  0.47286629     0.96400
Al172      Al  0.36985133  0.87199552  0.55671037     1.55600
O173        O  0.42767626  0.79574240  0.52963138    -0.75300
C174        C  0.36647673  0.87752065  0.64624309     1.00600
C175        C  0.45202793  0.93956472  0.52135838     0.95500
O176        O  0.46576906  0.91392772  0.51623866    -0.80600
O177        O  0.36846629  0.50752580  0.57080395    -0.80100
C178        C  0.45011366  0.67909219  0.58044061     0.99300
O179        O  0.41604805  0.64817014  0.59657135    -0.69200
O180        O  0.35003359  0.56859423  0.59918674    -0.72800
Al181      Al  0.40876992  0.59522829  0.61483237     1.49000
C182        C  0.33229639  0.56364412  0.56330656     0.94500
O183        O  0.41804951  0.59152955  0.47689431    -0.79000
O184        O  0.49801910  0.58144577  0.53576995    -0.72600
Al185      Al  0.39656875  0.55232878  0.52609165     1.90100
O186        O  0.48142050  0.64167661  0.49933534    -0.71600
O187        O  0.50771746  0.62019038  0.61069185    -0.71500
O188        O  0.48352492  0.67639536  0.57205104    -0.77100
O189        O  0.45945052  0.62469798  0.64842765    -0.75300
O190        O  0.43142868  0.59100886  0.56497074    -1.11500
O191        O  0.39972621  0.54090924  0.63272481    -0.70700
C192        C  0.37365901  0.50701105  0.61183014     1.00100
C193        C  0.45228996  0.62741622  0.47154782     0.96400
Al194      Al  0.48779903  0.62649287  0.55525026     1.55600
O195        O  0.35275696  0.56740286  0.52910033    -0.75300
C196        C  0.49682118  0.63101298  0.64484142     1.00600
C197        C  0.47292722  0.54409263  0.52086890     0.95500
O198        O  0.43340130  0.53026941  0.51568887    -0.80600
O199        O  0.55442285  0.47471836  0.49400056    -0.80100
C200        C  0.53779830  0.32596021  0.42917207     0.99300
O201        O  0.50439863  0.32872387  0.43745746    -0.69200
O202        O  0.50620723  0.36346952  0.51006030    -0.72800
Al203      Al  0.50010181  0.37867102  0.45410772     1.49000
C204        C  0.53530763  0.37751735  0.53786544     0.94500
O205        O  0.63509099  0.43761119  0.48070939    -0.79000
O206        O  0.58832745  0.46413869  0.37695910    -0.72600
Al207      Al  0.59126664  0.45266731  0.48360654     1.90100
O208        O  0.63801831  0.43654527  0.41064175    -0.71600
O209        O  0.52871469  0.38026942  0.36110777    -0.71500
O210        O  0.57198064  0.35689777  0.41321854    -0.77100
O211        O  0.48044494  0.38501942  0.39855278    -0.75300
O212        O  0.55650985  0.41406869  0.44462144    -1.11500
O213        O  0.48989635  0.42377670  0.47341078    -0.70700
C214        C  0.51495844  0.46103288  0.48854202     1.00100
C215        C  0.65563758  0.44138698  0.44657037     0.96400
Al216      Al  0.57930507  0.40984800  0.39486981     1.55600
O217        O  0.56966180  0.41332719  0.53265338    -0.75300
C218        C  0.49133193  0.37395008  0.36456222     1.00600
C219        C  0.61424411  0.49805850  0.39791997     0.95500
O220        O  0.61941519  0.49753708  0.43895641    -0.80600
O221        O  0.12456642  0.62621964  0.57237603    -0.80100
C222        C  0.21329869  0.54426084  0.58153974     0.99300
O223        O  0.21681543  0.57827582  0.59789275    -0.69200
O224        O  0.20406499  0.64440376  0.60085926    -0.72800
Al225      Al  0.17121678  0.58567375  0.61630534     1.49000
C226        C  0.21722780  0.66220753  0.56501961     0.94500
O227        O  0.15905401  0.57690337  0.47842160    -0.79000
O228        O  0.06762939  0.49700342  0.53700973    -0.72600
Al229      Al  0.14131854  0.59828118  0.52760860     1.90100
O230        O  0.14465440  0.51333867  0.50060707    -0.71600
O231        O  0.09605185  0.48689169  0.61202517    -0.71500
O232        O  0.17683764  0.51090511  0.57329335    -0.77100
O233        O  0.14923304  0.53495494  0.64977323    -0.75300
O234        O  0.14435409  0.56322491  0.56640646    -1.11500
O235        O  0.12599854  0.59484064  0.63427266    -0.70700
C236        C  0.11843136  0.62085216  0.61337278     1.00100
C237        C  0.16006140  0.54253806  0.47290145     0.96400
Al238      Al  0.12278646  0.50689695  0.55655472     1.55600
O239        O  0.20061449  0.64183154  0.53078366    -0.75300
C240        C  0.11770846  0.49768854  0.64619768     1.00600
C241        C  0.05601129  0.52227874  0.52189054     0.95500
O242        O  0.08226020  0.56174544  0.51691955    -0.80600
O243        O  0.90513097  0.44225114  0.49272305    -0.80100
C244        C  0.77435875  0.46010806  0.42840608     0.99300
O245        O  0.81092642  0.49339663  0.43651150    -0.69200
O246        O  0.84363409  0.49114626  0.50893786    -0.72800
Al247      Al  0.86502209  0.49726824  0.45281388     1.49000
C248        C  0.82773113  0.46185017  0.53652498     0.94500
O249        O  0.78674421  0.36224135  0.47878791    -0.79000
O250        O  0.86110989  0.40911906  0.37518696    -0.72600
Al251      Al  0.84605498  0.40579006  0.48192589     1.90100
O252        O  0.78317547  0.35968652  0.40874584    -0.71600
O253        O  0.83783709  0.46903973  0.35977424    -0.71500
O254        O  0.77061232  0.42598914  0.41204101    -0.77100
O255        O  0.89136812  0.51707165  0.39714032    -0.75300
O256        O  0.84312999  0.44087716  0.44310563    -1.11500
O257        O  0.92021577  0.50693703  0.47189955    -0.70700
C258        C  0.93160656  0.48160392  0.48733918     1.00100
C259        C  0.77004586  0.34187999  0.44457651     0.96400
Al260      Al  0.81602886  0.41840765  0.39333842     1.55600
O261        O  0.82824364  0.42722946  0.53098806    -0.75300
C262        C  0.86942334  0.50628096  0.36315585     1.00600
C263        C  0.86883711  0.38321057  0.39609036     0.95500
O264        O  0.86281195  0.37786976  0.43711515    -0.80600
O265        O  0.41523132  0.19664654  0.68275496    -0.80100
C266        C  0.54720112  0.34510458  0.74896822     0.99300
O267        O  0.51096077  0.34220910  0.74090852    -0.69200
O268        O  0.47880546  0.30821373  0.66787256    -0.72800
Al269      Al  0.45668650  0.29221125  0.72358291     1.49000
C270        C  0.49400813  0.29457093  0.63983047     0.94500
O271        O  0.53348417  0.23484711  0.69655585    -0.79000
O272        O  0.45846273  0.20638922  0.79995171    -0.72600
Al273      Al  0.47427605  0.21910524  0.69342693     1.90100
O274        O  0.53659945  0.23491552  0.76663751    -0.71600
O275        O  0.48271052  0.28994012  0.81659911    -0.71500
O276        O  0.55027140  0.31426201  0.76479195    -0.77100
O277        O  0.42979432  0.28488613  0.77896404    -0.75300
O278        O  0.47765071  0.25709120  0.73277425    -1.11500
O279        O  0.40142659  0.24709168  0.70358320    -0.70700
C280        C  0.38934953  0.21006942  0.68809805     1.00100
C281        C  0.55000099  0.23088840  0.73064188     0.96400
Al282      Al  0.50421348  0.26101826  0.78262872     1.55600
O283        O  0.49250131  0.25888396  0.64470276    -0.75300
C284        C  0.45147550  0.29586765  0.81309809     1.00600
C285        C  0.45063701  0.17276762  0.77867788     0.95500
O286        O  0.45698275  0.17380183  0.73767153    -0.80600
O287        O  0.19668109  0.16366697  0.60412126    -0.80100
C288        C  0.10641207  0.99234427  0.59268718     0.99300
O289        O  0.10345684  0.02324011  0.57685744    -0.69200
O290        O  0.11716761  0.10254003  0.57520733    -0.72800
Al291      Al  0.14957079  0.07647923  0.55916716     1.49000
C292        C  0.10381771  0.10664439  0.61120642     0.94500
O293        O  0.16141398  0.07872678  0.69727415    -0.79000
O294        O  0.25206441  0.09004810  0.63859260    -0.72600
Al295      Al  0.17949684  0.11838450  0.64839647     1.90100
O296        O  0.17446044  0.02898830  0.67401834    -0.71600
O297        O  0.22390843  0.05244089  0.56307811    -0.71500
O298        O  0.14259176  0.99515227  0.60083271    -0.77100
O299        O  0.17120590  0.04766682  0.52524491    -0.75300
O300        O  0.17603318  0.08031982  0.60908272    -1.11500
O301        O  0.19534518  0.13112334  0.54189326    -0.70700
C302        C  0.20301061  0.16471315  0.56311515     1.00100
C303        C  0.15962187  0.04290161  0.70217160     0.96400
Al304      Al  0.19682408  0.04505733  0.61836920     1.55600
O305        O  0.12028373  0.10262668  0.64530982    -0.75300
C306        C  0.20242354  0.04171854  0.52881487     1.00600
C307        C  0.26429052  0.12719490  0.65383034     0.95500
O308        O  0.23855158  0.14082946  0.65891245    -0.80600
O309        O  0.79956615  0.22984130  0.68183386    -0.80100
C310        C  0.65082457  0.21327680  0.74696954     0.99300
O311        O  0.65356990  0.17989636  0.73866167    -0.69200
O312        O  0.68823766  0.18164594  0.66598720    -0.72800
Al313      Al  0.70351997  0.17558189  0.72192525     1.49000
C314        C  0.70225070  0.21070453  0.63815099     0.94500
O315        O  0.76245875  0.31047631  0.69527081    -0.79000
O316        O  0.78916383  0.26374459  0.79892963    -0.72600
Al317      Al  0.77751878  0.26667038  0.69230764     1.90100
O318        O  0.76152682  0.31343475  0.76534061    -0.71600
O319        O  0.70524701  0.20420583  0.81493314    -0.71500
O320        O  0.68180441  0.24743204  0.76288893    -0.77100
O321        O  0.70993198  0.15595234  0.77746717    -0.75300
O322        O  0.73895677  0.23195103  0.73135951    -1.11500
O323        O  0.74863158  0.16537500  0.70254120    -0.70700
C324        C  0.78588038  0.19040694  0.68730985     1.00100
C325        C  0.76629430  0.33102728  0.72940785     0.96400
Al326      Al  0.73481513  0.25474737  0.78113195     1.55600
O327        O  0.73806994  0.24506199  0.64332514    -0.75300
C328        C  0.69889418  0.16684237  0.81147602     1.00600
C329        C  0.82307641  0.28964099  0.77791053     0.95500
O330        O  0.82249233  0.29480226  0.73687738    -0.80600
O331        O  0.83190148  0.04371337  0.60482214    -0.80100
C332        C  0.00354427  0.12504473  0.59465774     0.99300
O333        O  0.97251516  0.09099764  0.57865387    -0.69200
O334        O  0.89281335  0.02511065  0.57630305    -0.72800
Al335      Al  0.91953752  0.08381460  0.56054906     1.49000
C336        C  0.88798386  0.00745655  0.61221644     0.94500
O337        O  0.91620902  0.09334187  0.69851432    -0.79000
O338        O  0.90614519  0.17322497  0.63963917    -0.72600
Al339      Al  0.87685924  0.07182365  0.64941256     1.90100
O340        O  0.96643591  0.15656779  0.67586727    -0.71600
O341        O  0.94465747  0.18271506  0.56458609    -0.71500
O342        O  0.00093537  0.15848216  0.60304040    -0.77100
O343        O  0.94905146  0.13442528  0.52685244    -0.75300
O344        O  0.91549751  0.10655819  0.61041608    -1.11500
O345        O  0.86518826  0.07489136  0.54282183    -0.70700
C346        C  0.83130219  0.04887982  0.56379774     1.00100
C347        C  0.95217020  0.12753220  0.70374042     0.96400
Al348      Al  0.95110307  0.16288304  0.62000591     1.55600
O349        O  0.89187281  0.02798414  0.64639354    -0.75300
C350        C  0.95544596  0.17179791  0.53042999     1.00600
C351        C  0.86878293  0.14822056  0.65463921     0.95500
O352        O  0.85488307  0.10871178  0.65983800    -0.80600
O353        O  0.76697510  0.58034986  0.68281765    -0.80100
C354        C  0.78491357  0.44969834  0.74727966     0.99300
O355        O  0.81819540  0.48624142  0.73905663    -0.69200
O356        O  0.81594689  0.51899578  0.66664182    -0.72800
Al357      Al  0.82206219  0.54032503  0.72278135     1.49000
C358        C  0.78659196  0.50300500  0.63910850     0.94500
O359        O  0.68688023  0.46201781  0.69694386    -0.79000
O360        O  0.73386230  0.53639449  0.80044221    -0.72600
Al361      Al  0.73048464  0.52129540  0.69371779     1.90100
O362        O  0.68438698  0.45848998  0.76698631    -0.71600
O363        O  0.79383527  0.51314676  0.81585414    -0.71500
O364        O  0.75077051  0.44596129  0.76365687    -0.77100
O365        O  0.84191032  0.56662009  0.77845695    -0.75300
O366        O  0.76562564  0.51841353  0.73252714    -1.11500
O367        O  0.83170743  0.59551265  0.70372187    -0.70700
C368        C  0.80634339  0.60686255  0.68822921     1.00100
C369        C  0.66653312  0.44533831  0.73118381     0.96400
Al370      Al  0.74316540  0.49134743  0.78232081     1.55600
O371        O  0.75190791  0.50343715  0.64468128    -0.75300
C372        C  0.83111311  0.54468592  0.81244603     1.00600
C373        C  0.70792729  0.54410410  0.77953955     0.95500
O374        O  0.70257610  0.53807517  0.73851998    -0.80600
O375        O  0.95085891  0.79990296  0.60307780    -0.80100
C376        C  0.86872140  0.88852747  0.59431455     0.99300
O377        O  0.90275262  0.89207285  0.57788632    -0.69200
O378        O  0.96897726  0.87939666  0.57468375    -0.72800
Al379      Al  0.91018754  0.84655331  0.55936365     1.49000
C380        C  0.98688847  0.89249674  0.61047967     0.94500
O381        O  0.90164423  0.83432675  0.69721905    -0.79000
O382        O  0.82159332  0.74283937  0.63861441    -0.72600
Al383      Al  0.92295905  0.81659766  0.64795857     1.90100
O384        O  0.83791468  0.81973580  0.67524008    -0.71600
O385        O  0.81132088  0.77142713  0.56372688    -0.71500
O386        O  0.83539467  0.85207294  0.60267044    -0.77100
O387        O  0.85940522  0.82460939  0.52598927    -0.75300
O388        O  0.88780146  0.81963687  0.60926340    -1.11500
O389        O  0.91939685  0.80142570  0.54126334    -0.70700
C390        C  0.94548361  0.79387715  0.56207143     1.00100
C391        C  0.86721178  0.83523480  0.70285281     0.96400
Al392      Al  0.83142984  0.79801693  0.61923080     1.55600
O393        O  0.96656963  0.87586028  0.64475293    -0.75300
C394        C  0.82210722  0.79312492  0.52958227     1.00600
C395        C  0.84692098  0.73125369  0.65370927     0.95500
O396        O  0.88640711  0.75754283  0.65868672    -0.80600
O397        O  0.57173016  0.77576414  0.82582970    -0.80100
C398        C  0.44079836  0.79328293  0.76126136     0.99300
O399        O  0.47732699  0.82662221  0.76936975    -0.69200
O400        O  0.50992313  0.82445979  0.84189412    -0.72800
Al401      Al  0.53144322  0.83061129  0.78583593     1.49000
C402        C  0.49416424  0.79522417  0.86954847     0.94500
O403        O  0.45337480  0.69563461  0.81189976    -0.79000
O404        O  0.52784007  0.74252103  0.70833945    -0.72600
Al405      Al  0.51266894  0.73922589  0.81504543     1.90100
O406        O  0.44987496  0.69298629  0.74184835    -0.71600
O407        O  0.50445522  0.80232703  0.69277964    -0.71500
O408        O  0.43714552  0.75918006  0.74496222    -0.77100
O409        O  0.55789723  0.85040072  0.73021314    -0.75300
O410        O  0.50968296  0.77423711  0.77617171    -1.11500
O411        O  0.58664372  0.84041768  0.80508351    -0.70700
C412        C  0.59812216  0.81514662  0.82050648     1.00100
C413        C  0.43670662  0.67523085  0.77769837     0.96400
Al414      Al  0.48266372  0.75170415  0.72638008     1.55600
O415        O  0.49482775  0.76067267  0.86408201    -0.75300
C416        C  0.53601904  0.83958349  0.69618619     1.00600
C417        C  0.53559270  0.71665590  0.72928692     0.95500
O418        O  0.52949728  0.71130577  0.77030167    -0.80600
O419        O  0.79117736  0.95970704  0.90577979    -0.80100
C420        C  0.87967235  0.87750488  0.91468480     0.99300
O421        O  0.88326522  0.91152405  0.93111800    -0.69200
O422        O  0.87065929  0.97774907  0.93426937    -0.72800
Al423      Al  0.83773424  0.91900107  0.94961071     1.49000
C424        C  0.88383410  0.99562199  0.89846392     0.94500
O425        O  0.82566969  0.91044459  0.81174679    -0.79000
O426        O  0.73405044  0.83054859  0.87029775    -0.72600
Al427      Al  0.80791102  0.93179559  0.86095483     1.90100
O428        O  0.81099503  0.84675690  0.83380656    -0.71600
O429        O  0.76244883  0.82027298  0.94525373    -0.71500
O430        O  0.84317701  0.84419302  0.90644396    -0.77100
O431        O  0.81568816  0.86823983  0.98301099    -0.75300
O432        O  0.81084818  0.89664639  0.89970064    -1.11500
O433        O  0.79258340  0.92825268  0.96764066    -0.70700
C434        C  0.78506687  0.95432322  0.94678143     1.00100
C435        C  0.82654370  0.87601387  0.80616463     0.96400
Al436      Al  0.78917040  0.84030984  0.88977929     1.55600
O437        O  0.86722397  0.97530943  0.86419727    -0.75300
C438        C  0.78412022  0.83100372  0.97941607     1.00600
C439        C  0.72251932  0.85588284  0.85515877     0.95500
O440        O  0.74884143  0.89533332  0.85018369    -0.80600
O441        O  0.18793424  0.42376885  0.82635510    -0.80100
C442        C  0.33641371  0.55598413  0.76021925     0.99300
O443        O  0.33359519  0.51980422  0.76824744    -0.69200
O444        O  0.29964455  0.48760735  0.84129806    -0.72800
Al445      Al  0.28365169  0.46552245  0.78558153     1.49000
C446        C  0.28587745  0.50263144  0.86940222     0.94500
O447        O  0.22592109  0.54193707  0.81282110    -0.79000
O448        O  0.19764107  0.46717596  0.70930279    -0.72600
Al449      Al  0.21029854  0.48279090  0.81583049     1.90100
O450        O  0.22604264  0.54518019  0.74273993    -0.71600
O451        O  0.28128529  0.49158139  0.69260540    -0.71500
O452        O  0.30549351  0.55900177  0.74447914    -0.77100
O453        O  0.27636101  0.43871911  0.73017920    -0.75300
O454        O  0.24838755  0.48634794  0.77645806    -1.11500
O455        O  0.23861358  0.41024548  0.80556193    -0.70700
C456        C  0.20150482  0.39801989  0.82098000     1.00100
C457        C  0.22194416  0.55847825  0.77876078     0.96400
Al458      Al  0.25226045  0.51293702  0.72664391     1.55600
O459        O  0.25008019  0.50096194  0.86457538    -0.75300
C460        C  0.28731097  0.46042457  0.69606297     1.00600
C461        C  0.16397267  0.45929756  0.73057403     0.95500
O462        O  0.16497008  0.46554018  0.77159346    -0.80600
O463        O  0.15532797  0.20521696  0.90439662    -0.80100
C464        C  0.98385417  0.11503357  0.91600260     0.99300
O465        O  0.01479397  0.11208552  0.93176734    -0.69200
O466        O  0.09412821  0.12575652  0.93326773    -0.72800
Al467      Al  0.06808605  0.15815586  0.94939547     1.49000
C468        C  0.09822497  0.11244420  0.89724602     0.94500
O469        O  0.07039009  0.17019341  0.81125000    -0.79000
O470        O  0.08155787  0.26055505  0.86997358    -0.72600
Al471      Al  0.11003235  0.18815226  0.86015095     1.90100
O472        O  0.02047908  0.18298758  0.83460690    -0.71600
O473        O  0.04400589  0.23242992  0.94549891    -0.71500
O474        O  0.98666279  0.15117785  0.90782746    -0.77100
O475        O  0.03928006  0.17979386  0.98335657    -0.75300
O476        O  0.07190774  0.18461623  0.89948690    -1.11500
O477        O  0.12278366  0.20387782  0.96663939    -0.70700
C478        C  0.15638142  0.21149595  0.94540431     1.00100
C479        C  0.03448660  0.16830079  0.80639422     0.96400
Al480      Al  0.03658162  0.20535672  0.89023142     1.55600
O481        O  0.09424580  0.12896311  0.86316011    -0.75300
C482        C  0.03328902  0.21096524  0.97976959     1.00600
C483        C  0.11878514  0.27286181  0.85482698     0.95500
O484        O  0.13250855  0.24720200  0.84975767    -0.80600
O485        O  0.22083356  0.80791328  0.82683338    -0.80100
C486        C  0.20414181  0.65907374  0.76218212     0.99300
O487        O  0.17074215  0.66184186  0.77043731    -0.69200
O488        O  0.17266266  0.69664792  0.84302500    -0.72800
Al489      Al  0.16647982  0.71180494  0.78707392     1.49000
C490        C  0.20178857  0.71075208  0.87080582     0.94500
O491        O  0.30150750  0.77079192  0.81354142    -0.79000
O492        O  0.25468536  0.79721099  0.70977917    -0.72600
Al493      Al  0.25767785  0.78585053  0.81644320     1.90100
O494        O  0.30435374  0.76959725  0.74347484    -0.71600
O495        O  0.19501433  0.71335857  0.69405148    -0.71500
O496        O  0.23829962  0.68998000  0.74615777    -0.77100
O497        O  0.14676262  0.71811556  0.73153410    -0.75300
O498        O  0.22288270  0.74720450  0.77751377    -1.11500
O499        O  0.15628120  0.75690854  0.80638869    -0.70700
C500        C  0.18134867  0.79418811  0.82146190     1.00100
C501        C  0.32201209  0.77449271  0.77938857     0.96400
Al502      Al  0.24563228  0.74292122  0.72775435     1.55600
O503        O  0.23611855  0.74657345  0.86554294    -0.75300
C504        C  0.15764606  0.70707483  0.69752121     1.00600
C505        C  0.28062872  0.83114572  0.73070450     0.95500
O506        O  0.28579792  0.83066372  0.77174351    -0.80600
O507        O  0.03463656  0.84049750  0.90381539    -0.80100
C508        C  0.11637584  0.01206667  0.91379566     0.99300
O509        O  0.08226688  0.98111494  0.92982197    -0.69200
O510        O  0.01623878  0.90155182  0.93224482    -0.72800
Al511      Al  0.07494340  0.92812862  0.94798856     1.49000
C512        C  0.99856782  0.89670047  0.89634130     0.94500
O513        O  0.08445670  0.92465796  0.81003268    -0.79000
O514        O  0.16427648  0.91445525  0.86893232    -0.72600
Al515      Al  0.06285410  0.88537736  0.85917565     1.90100
O516        O  0.14776158  0.97479003  0.83264607    -0.71600
O517        O  0.17385621  0.95300115  0.94395561    -0.71500
O518        O  0.14978596  0.00935875  0.90543067    -0.77100
O519        O  0.12558616  0.95752281  0.98167007    -0.75300
O520        O  0.09766443  0.92398585  0.89813639    -1.11500
O521        O  0.06585707  0.87377392  0.96578731    -0.70700
C522        C  0.03978245  0.83991728  0.94484522     1.00100
C523        C  0.11870357  0.96056465  0.80478453     0.96400
Al524      Al  0.15404916  0.95946917  0.88851998     1.55600
O525        O  0.01907268  0.90050013  0.86215483    -0.75300
C526        C  0.16294819  0.96380423  0.97811060     1.00600
C527        C  0.13920141  0.87712073  0.85397916     0.95500
O528        O  0.09967396  0.86329291  0.84879351    -0.80600
O529        O  0.49852494  0.37695211  0.93827027    -0.80100
C530        C  0.67021062  0.45835462  0.92818014     0.99300
O531        O  0.63918586  0.42431129  0.91217042    -0.69200
O532        O  0.55950953  0.35841736  0.90982395    -0.72800
Al533      Al  0.58619944  0.41710821  0.89405882     1.49000
C534        C  0.55463687  0.34075405  0.94573925     0.94500
O535        O  0.58271053  0.42659786  0.03204712    -0.79000
O536        O  0.57278383  0.50648885  0.97318770    -0.72600
Al537      Al  0.54343551  0.40508252  0.98289103     1.90100
O538        O  0.63303785  0.48977907  0.00941058    -0.71600
O539        O  0.61130981  0.51601659  0.89815577    -0.71500
O540        O  0.66758357  0.49177439  0.93659291    -0.77100
O541        O  0.61568843  0.46773573  0.86038369    -0.75300
O542        O  0.58212325  0.43982969  0.94392797    -1.11500
O543        O  0.53184087  0.40814690  0.87629481    -0.70700
C544        C  0.49794747  0.38211381  0.89724627     1.00100
C545        C  0.61869799  0.46075114  0.03729190     0.96400
Al546      Al  0.61773730  0.49614919  0.95355768     1.55600
O547        O  0.55847263  0.36126214  0.97991731    -0.75300
C548        C  0.62207676  0.50510538  0.86398266     1.00600
C549        C  0.53538067  0.48148276  0.98809009     0.95500
O550        O  0.52143660  0.44196044  0.99324119    -0.80600
O551        O  0.46621975  0.56318440  0.01512636    -0.80100
C552        C  0.31746010  0.54659339  0.08023871     0.99300
O553        O  0.32019233  0.51320135  0.07196488    -0.69200
O554        O  0.35480242  0.51498879  0.99926386    -0.72800
Al555      Al  0.37013632  0.50890710  0.05516513     1.49000
C556        C  0.36884941  0.54402352  0.97140389     0.94500
O557        O  0.42902184  0.64375940  0.02849417    -0.79000
O558        O  0.45582107  0.59709468  0.13216510    -0.72600
Al559      Al  0.44413897  0.59999306  0.02554972     1.90100
O560        O  0.42812391  0.64674636  0.09856922    -0.71600
O561        O  0.37192490  0.53750820  0.14818591    -0.71500
O562        O  0.34843613  0.58073915  0.09616945    -0.77100
O563        O  0.37662600  0.48928833  0.11067010    -0.75300
O564        O  0.40558273  0.56527393  0.06460495    -1.11500
O565        O  0.41522211  0.49870186  0.03571932    -0.70700
C566        C  0.45250006  0.52373783  0.02055999     1.00100
C567        C  0.43283489  0.66431088  0.06262700     0.96400
Al568      Al  0.40145368  0.58806657  0.11438754     1.55600
O569        O  0.40470444  0.57834829  0.97655063    -0.75300
C570        C  0.36560742  0.50015716  0.14470251     1.00600
C571        C  0.48971843  0.62301681  0.11114210     0.95500
O572        O  0.48911354  0.62817534  0.07011195    -0.80600
O573        O  0.61773730  0.13344462  0.93661172    -0.80100
C574        C  0.53542202  0.22187476  0.92774358     0.99300
O575        O  0.56947153  0.22546232  0.91131724    -0.69200
O576        O  0.63575674  0.21288668  0.90816754    -0.72800
Al577      Al  0.57698396  0.17998305  0.89282786     1.49000
C578        C  0.65365874  0.22600490  0.94396370     0.94500
O579        O  0.56840453  0.16779420  0.03069134    -0.79000
O580        O  0.48845776  0.07627063  0.97207848    -0.72600
Al581      Al  0.58978023  0.15010333  0.98145612     1.90100
O582        O  0.50466207  0.15312955  0.00867748    -0.71600
O583        O  0.47815893  0.10477063  0.89718722    -0.71500
O584        O  0.50211364  0.18540424  0.93608112    -0.77100
O585        O  0.52620644  0.15796360  0.85943443    -0.75300
O586        O  0.55460681  0.15307766  0.94273344    -1.11500
O587        O  0.58627693  0.13489567  0.87476822    -0.70700
C588        C  0.61237734  0.12738927  0.89560849     1.00100
C589        C  0.53394358  0.16865096  0.03630602     0.96400
Al590      Al  0.49822302  0.13139884  0.95267731     1.55600
O591        O  0.63333756  0.20938280  0.97823939    -0.75300
C592        C  0.48893027  0.12644260  0.86302865     1.00600
C593        C  0.51381332  0.06472678  0.98717596     0.95500
O594        O  0.55328621  0.09104689  0.99218471    -0.80600
O595        O  0.43375667  0.91387581  0.01607415    -0.80100
C596        C  0.45139086  0.78297962  0.08044752     0.99300
O597        O  0.48471197  0.81949152  0.07223578    -0.69200
O598        O  0.48251115  0.85222890  0.99980507    -0.72800
Al599      Al  0.48868561  0.87360772  0.05592504     1.49000
C600        C  0.45319079  0.83640517  0.97222844     0.94500
O601        O  0.35354020  0.79557007  0.03000461    -0.79000
O602        O  0.40052581  0.86985720  0.13357643    -0.72600
Al603      Al  0.39718880  0.85482691  0.02685623     1.90100
O604        O  0.35099248  0.79198064  0.10005156    -0.71600
O605        O  0.46041160  0.84650693  0.14900234    -0.71500
O606        O  0.41726915  0.77930974  0.09680055    -0.77100
O607        O  0.50855542  0.89991706  0.11158319    -0.75300
O608        O  0.43226535  0.85181924  0.06566385    -1.11500
O609        O  0.49846129  0.92882381  0.03684102    -0.70700
C610        C  0.47315307  0.94029001  0.02145052     1.00100
C611        C  0.33317068  0.77886663  0.06422824     0.96400
Al612      Al  0.40975357  0.82475899  0.11544939     1.55600
O613        O  0.41859343  0.83700715  0.97778086    -0.75300
C614        C  0.49771165  0.87801352  0.14559158     1.00600
C615        C  0.37461378  0.87759953  0.11267737     0.95500
O616        O  0.36928018  0.87159483  0.07165806    -0.80600
O617        O  0.08197261  0.53004660  0.01597437    -0.80100
C618        C  0.21391290  0.67860201  0.08204251     0.99300
O619        O  0.17765702  0.67567288  0.07401156    -0.69200
O620        O  0.14554202  0.64164959  0.00097810    -0.72800
Al621      Al  0.12342260  0.62565523  0.05669241     1.49000
C622        C  0.16068839  0.62796669  0.97291625     0.94500
O623        O  0.20025034  0.56832111  0.02965914    -0.79000
O624        O  0.12530207  0.53989559  0.13311212    -0.72600
Al625      Al  0.14102950  0.55254653  0.02657378     1.90100
O626        O  0.20342042  0.56847032  0.09974282    -0.71600
O627        O  0.14946573  0.62342818  0.14970478    -0.71500
O628        O  0.21702747  0.64778720  0.09787055    -0.77100
O629        O  0.09652200  0.61831036  0.11206578    -0.75300
O630        O  0.14441514  0.59055865  0.06589783    -1.11500
O631        O  0.06819077  0.58053015  0.03671476    -0.70700
C632        C  0.05610054  0.54348141  0.02130925     1.00100
C633        C  0.21678200  0.56438565  0.06374771     0.96400
Al634      Al  0.17100881  0.59453572  0.11574390     1.55600
O635        O  0.15917379  0.59227633  0.97780412    -0.75300
C636        C  0.11819455  0.62930029  0.14620351     1.00600
C637        C  0.11748879  0.50626785  0.11185796     0.95500
O638        O  0.12380796  0.50728220  0.07084888    -0.80600
O639        O  0.86339064  0.49708070  0.93764434    -0.80100
C640        C  0.77319609  0.32577725  0.92610739     0.99300
O641        O  0.77025822  0.35667394  0.91025819    -0.69200
O642        O  0.78392880  0.43594888  0.90867282    -0.72800
Al643      Al  0.81637828  0.40992903  0.89263069     1.49000
C644        C  0.77054435  0.44001673  0.94467050     0.94500
O645        O  0.82815420  0.41213015  0.03078120    -0.79000
O646        O  0.91875605  0.42342039  0.97217255    -0.72600
Al647      Al  0.84621961  0.45178502  0.98189613     1.90100
O648        O  0.84112054  0.36234683  0.00750103    -0.71600
O649        O  0.89073083  0.38591260  0.89665313    -0.71500
O650        O  0.80936395  0.32857259  0.93427317    -0.77100
O651        O  0.83809001  0.38116318  0.85872740    -0.75300
O652        O  0.84278516  0.41373646  0.94257734    -1.11500
O653        O  0.86215558  0.46460017  0.87541151    -0.70700
C654        C  0.86976177  0.49816447  0.89664583     1.00100
C655        C  0.82632279  0.37628533  0.03566884     0.96400
Al656      Al  0.86355900  0.37846137  0.95188791     1.55600
O657        O  0.78699664  0.43599058  0.97878255    -0.75300
C658        C  0.86931067  0.37522317  0.86235399     1.00600
C659        C  0.93099574  0.46058827  0.98734673     0.95500
O660        O  0.90527441  0.47424833  0.99239954    -0.80600
O661        O  0.85427202  0.75698769  0.15954195    -0.80100
C662        C  0.00279458  0.88907014  0.09337659     0.99300
O663        O  0.99993296  0.85286412  0.10137140    -0.69200
O664        O  0.96596897  0.82067546  0.17442202    -0.72800
Al665      Al  0.94994614  0.79860786  0.11870036     1.49000
C666        C  0.95226407  0.83576393  0.20252254     0.94500
O667        O  0.89238174  0.87517734  0.14595131    -0.79000
O668        O  0.86398793  0.80039048  0.04244900    -0.72600
Al669      Al  0.87669359  0.81601444  0.14897856     1.90100
O670        O  0.89248727  0.87841501  0.07587304    -0.71600
O671        O  0.94759594  0.82468901  0.02572536    -0.71500
O672        O  0.97190581  0.89213194  0.07761719    -0.77100
O673        O  0.94261303  0.77179530  0.06328878    -0.75300
O674        O  0.91473957  0.81950379  0.10959139    -1.11500
O675        O  0.90486322  0.74335842  0.13868703    -0.70700
C676        C  0.86778689  0.73119413  0.15415805     1.00100
C677        C  0.88843305  0.89174113  0.11189505     0.96400
Al678      Al  0.91863871  0.84610696  0.05977975     1.55600
O679        O  0.91650253  0.83417279  0.19770097    -0.75300
C680        C  0.95354778  0.79348397  0.02916055     1.00600
C681        C  0.83033480  0.79253651  0.06373637     0.95500
O682        O  0.83135292  0.79878785  0.10475643    -0.80600
O683        O  0.82186869  0.53860982  0.23793908    -0.80100
C684        C  0.65041277  0.44827071  0.24963348     0.99300
O685        O  0.68138012  0.44536715  0.26539314    -0.69200
O686        O  0.76075369  0.45913887  0.26687135    -0.72800
Al687      Al  0.73465775  0.49149295  0.28299067     1.49000
C688        C  0.76483731  0.44581207  0.23085228     0.94500
O689        O  0.73685765  0.50343635  0.14484008    -0.79000
O690        O  0.74793228  0.59376815  0.20345525    -0.72600
Al691      Al  0.77653366  0.52146062  0.19371628     1.90100
O692        O  0.68688199  0.51612292  0.16823042    -0.71600
O693        O  0.71052032  0.56572213  0.27905453    -0.71500
O694        O  0.65316652  0.48439784  0.24150164    -0.77100
O695        O  0.70583656  0.51312018  0.31694665    -0.75300
O696        O  0.73841776  0.51790772  0.23306717    -1.11500
O697        O  0.78934029  0.53726855  0.30019389    -0.70700
C698        C  0.82294103  0.54492551  0.27894241     1.00100
C699        C  0.70091913  0.50147529  0.14000729     0.96400
Al700      Al  0.70303280  0.53857805  0.22381675     1.55600
O701        O  0.76080857  0.46229195  0.19676291    -0.75300
C702        C  0.69985716  0.54429969  0.31335197     1.00600
C703        C  0.78515745  0.60610355  0.18828711     0.95500
O704        O  0.79893918  0.58048641  0.18327437    -0.80600
O705        O  0.88773860  0.14136750  0.16038962    -0.80100
C706        C  0.87087749  0.99253072  0.09551335     0.99300
O707        O  0.83751058  0.99534045  0.10383273    -0.69200
O708        O  0.83942877  0.03012076  0.17644894    -0.72800
Al709      Al  0.83329690  0.04532704  0.12050162     1.49000
C710        C  0.86855360  0.04414168  0.20422762     0.94500
O711        O  0.96831347  0.10414225  0.14696271    -0.79000
O712        O  0.92154082  0.13074762  0.04328128    -0.72600
Al713      Al  0.92452931  0.11925727  0.14992656     1.90100
O714        O  0.97116590  0.10304327  0.07689313    -0.71600
O715        O  0.86182681  0.04691143  0.02746251    -0.71500
O716        O  0.90505462  0.02343476  0.07951156    -0.77100
O717        O  0.81359588  0.05167693  0.06496638    -0.75300
O718        O  0.88970888  0.08067818  0.11096072    -1.11500
O719        O  0.82317139  0.09047810  0.13983892    -0.70700
C720        C  0.84827355  0.12772031  0.15498097     1.00100
C721        C  0.98881774  0.10787858  0.11280131     0.96400
Al722      Al  0.91244305  0.07642043  0.06118040     1.55600
O723        O  0.90293496  0.07992093  0.19898038    -0.75300
C724        C  0.82445961  0.04062547  0.03094773     1.00600
C725        C  0.94750341  0.16465186  0.06423849     0.95500
O726        O  0.95267887  0.16411792  0.10527207    -0.80600
O727        O  0.70165093  0.17396401  0.23743140    -0.80100
C728        C  0.78314276  0.34552046  0.24734882     0.99300
O729        O  0.74906534  0.31453714  0.26338917    -0.69200
O730        O  0.68312072  0.23491732  0.26585646    -0.72800
Al731      Al  0.74185023  0.26159817  0.28156786     1.49000
C732        C  0.66543077  0.23003798  0.22995770     0.94500
O733        O  0.75130863  0.25809262  0.14360931    -0.79000
O734        O  0.83125271  0.24805864  0.20248872    -0.72600
Al735      Al  0.72978444  0.21883281  0.19277077     1.90100
O736        O  0.81459774  0.30829525  0.16617994    -0.71600
O737        O  0.84081097  0.28664409  0.27749328    -0.71500
O738        O  0.81658238  0.34287265  0.23895342    -0.77100
O739        O  0.79250341  0.29108732  0.31521954    -0.75300
O740        O  0.76457652  0.25748432  0.23170729    -1.11500
O741        O  0.73288407  0.20729278  0.29937917    -0.70700
C742        C  0.70683096  0.17341213  0.27845754     1.00100
C743        C  0.78552379  0.29402036  0.13833426     0.96400
Al744      Al  0.82094299  0.29303116  0.22206029     1.55600
O745        O  0.68593802  0.23386479  0.19576594    -0.75300
C746        C  0.82989202  0.29744550  0.31164180     1.00600
C747        C  0.80620586  0.21070772  0.18755100     0.95500
O748        O  0.76666885  0.19683270  0.18237962    -0.80600
O749        O  0.45781514  0.29284838  0.23942448    -0.80100
C750        C  0.54648336  0.21076692  0.24821144     0.99300
O751        O  0.55004728  0.24478058  0.26461948    -0.69200
O752        O  0.53737744  0.31094847  0.26777883    -0.72800
Al753      Al  0.50450016  0.25221608  0.28315361     1.49000
C754        C  0.55047728  0.32882938  0.23196636     0.94500
O755        O  0.49220454  0.24361875  0.14529055    -0.79000
O756        O  0.40079028  0.16364082  0.20385614    -0.72600
Al757      Al  0.47449855  0.26494312  0.19455735     1.90100
O758        O  0.47778400  0.18001119  0.16735760    -0.71600
O759        O  0.42927582  0.15343697  0.27882197    -0.71500
O760        O  0.50999976  0.17744361  0.23997107    -0.77100
O761        O  0.48250443  0.20146801  0.31655241    -0.75300
O762        O  0.47756224  0.22983142  0.23326899    -1.11500
O763        O  0.45935203  0.26144097  0.30125993    -0.70700
C764        C  0.45180168  0.28750416  0.28043580     1.00100
C765        C  0.49319902  0.20925287  0.13969551     0.96400
Al766      Al  0.45595827  0.17350220  0.22333293     1.55600
O767        O  0.53380598  0.30852083  0.19770974    -0.75300
C768        C  0.45096758  0.16421145  0.31297486     1.00600
C769        C  0.38915898  0.18892160  0.18878194     0.95500
O770        O  0.41540475  0.22840485  0.18388142    -0.80600
O771        O  0.17664625  0.15749977  0.17528291    -0.80100
C772        C  0.20198059  0.04951290  0.06260182     0.99300
O773        O  0.19593829  0.04419309  0.10362593    -0.69200
O774        O  0.23830104  0.10863777  0.15920171    -0.72800
Al775      Al  0.17920321  0.07216997  0.14839809     1.49000
C776        C  0.26474353  0.14801829  0.15391440     0.94500
O777        O  0.22461119  0.18339278  0.06359594    -0.79000
O778        O  0.10378983  0.09234879  0.07837581    -0.72600
Al779      Al  0.19815603  0.16363004  0.11922619     1.90100
O780        O  0.17109764  0.13539558  0.02617822    -0.71600
O781        O  0.11633195  0.02604298  0.07520454    -0.71500
O782        O  0.19430502  0.07544433  0.04167813    -0.77100
O783        O  0.11987383  0.02863013  0.14525286    -0.75300
O784        O  0.17628729  0.10723848  0.10954437    -1.11500
O785        O  0.16141282  0.09366151  0.19744630    -0.70700
C786        C  0.16082047  0.12825100  0.20291992     1.00100
C787        C  0.20270331  0.17262656  0.02958689     0.96400
Al788      Al  0.14922301  0.08475481  0.05975901     1.55600
O789        O  0.25332052  0.17332810  0.13847792    -0.75300
C790        C  0.10316107  0.00826368  0.11104253     1.00600
C791        C  0.10752835  0.12648693  0.09467321     0.95500
O792        O  0.14409613  0.15977489  0.10277588    -0.80600
C793        C  0.30884071  0.16339971  0.16593729    -0.11500
C794        C  0.34504378  0.17339152  0.17672513    -0.13100
C795        C  0.62128177  0.21879716  0.22962459    -0.11500
C796        C  0.58535333  0.21140160  0.23713588    -0.13100
C797        C  0.03290291  0.11890171  0.11318862    -0.11500
C798        C  0.06876416  0.12607284  0.10573018    -0.13100
C799        C  0.82208822  0.18230024  0.17621306    -0.11500
C800        C  0.83253214  0.15625284  0.16628733    -0.13100
C801        C  0.77542951  0.41256510  0.23018088    -0.11500
C802        C  0.78252337  0.38384676  0.23704714    -0.13100
C803        C  0.61208217  0.40906857  0.23909664    -0.11500
C804        C  0.58354658  0.37300369  0.23176387    -0.13100
C805        C  0.04119871  0.92817382  0.10400574    -0.11500
C806        C  0.06990059  0.96416205  0.11132998    -0.13100
C807        C  0.87125470  0.95407054  0.10580119    -0.11500
C808        C  0.87807759  0.92516061  0.11261508    -0.13100
C809        C  0.83935376  0.68691374  0.16596727    -0.11500
C810        C  0.81346477  0.65038623  0.17640817    -0.13100
C811        C  0.79278934  0.32138199  0.10109765    -0.11500
C812        C  0.80630719  0.34872929  0.07290994    -0.13100
C813        C  0.97528878  0.48898664  0.99916320    -0.11500
C814        C  0.01181367  0.51497165  0.00954395    -0.13100
C815        C  0.28902278  0.74566755  0.06397981    -0.11500
C816        C  0.25301581  0.71699229  0.07135725    -0.13100
C817        C  0.52662480  0.18851752  0.07374479    -0.11500
C818        C  0.51310023  0.20199767  0.10223520    -0.13100
C819        C  0.69787824  0.25901795  0.94412268    -0.11500
C820        C  0.73397705  0.28749135  0.93672904    -0.13100
C821        C  0.48852169  0.98441190  0.00964227    -0.11500
C822        C  0.49840757  0.02061822  0.99906412    -0.13100
C823        C  0.27902232  0.54704930  0.06994982    -0.11500
C824        C  0.25016629  0.55396276  0.06309375    -0.13100
C825        C  0.44378891  0.70834829  0.06215547    -0.11500
C826        C  0.45093278  0.74419458  0.06949367    -0.13100
C827        C  0.64604415  0.46800067  0.07454529    -0.11500
C828        C  0.67337964  0.48149796  0.10275240    -0.13100
C829        C  0.53600637  0.26071691  0.93871069    -0.11500
C830        C  0.54339415  0.29663335  0.94611878    -0.13100
C831        C  0.70855712  0.45771544  0.93843881    -0.11500
C832        C  0.73727996  0.45060594  0.94529934    -0.13100
C833        C  0.48098890  0.50793048  0.00928025    -0.11500
C834        C  0.50699800  0.49740915  0.99939779    -0.13100
C835        C  0.20699404  0.01848258  0.03749385    -0.11500
C836        C  0.19367643  0.98985982  0.01087132    -0.13100
C837        C  0.00830648  0.80388843  0.96989916    -0.11500
C838        C  0.97951756  0.78873445  0.99640083    -0.13100
C839        C  0.18084054  0.65570800  0.93586374    -0.11500
C840        C  0.19447142  0.68325021  0.90789231    -0.13100
C841        C  0.15505272  0.84868818  0.84264323    -0.11500
C842        C  0.16553703  0.82266809  0.83273622    -0.13100
C843        C  0.11582507  0.05042326  0.90346575    -0.11500
C844        C  0.10877657  0.07916831  0.89657415    -0.13100
C845        C  0.19260478  0.21657800  0.97020516    -0.11500
C846        C  0.20779269  0.20334510  0.99680635    -0.13100
C847        C  0.97881417  0.20076233  0.03918017    -0.11500
C848        C  0.00749876  0.21590956  0.01257779    -0.13100
C849        C  0.34125394  0.53658563  0.93435299    -0.11500
C850        C  0.31365491  0.52284695  0.90642233    -0.13100
C851        C  0.17308469  0.35371339  0.83271041    -0.11500
C852        C  0.14716472  0.31716303  0.84305383    -0.13100
C853        C  0.21149022  0.59182683  0.77946534    -0.11500
C854        C  0.20458595  0.62067065  0.77257885    -0.13100
C855        C  0.91691948  0.03978736  0.89826212    -0.11500
C856        C  0.94548155  0.07585233  0.90552993    -0.13100
C857        C  0.91852203  0.87812630  0.90355973    -0.11500
C858        C  0.95443559  0.88550458  0.89600475    -0.13100
C859        C  0.79367807  0.01426987  0.99834791    -0.11500
C860        C  0.78024986  0.98547042  0.97191092    -0.13100
C861        C  0.77880857  0.80024927  0.01223447    -0.11500
C862        C  0.79398846  0.78713169  0.03895484    -0.13100
C863        C  0.47417631  0.80268854  0.90678342    -0.11500
C864        C  0.46058424  0.81636712  0.93500327    -0.13100
C865        C  0.37481153  0.59511077  0.77077083    -0.11500
C866        C  0.40349606  0.63111871  0.77802326    -0.13100
C867        C  0.64223134  0.83055248  0.83244270    -0.11500
C868        C  0.67842579  0.84046572  0.84315203    -0.13100
C869        C  0.40198471  0.79277060  0.77231966    -0.11500
C870        C  0.36610766  0.78555144  0.77978601    -0.13100
C871        C  0.85994836  0.85515234  0.74028589    -0.11500
C872        C  0.84645283  0.86869341  0.76874756    -0.13100
C873        C  0.82161660  0.65095631  0.67632520    -0.11500
C874        C  0.83147372  0.68713962  0.66565841    -0.13100
C875        C  0.86182026  0.54967887  0.84522290    -0.11500
C876        C  0.87495953  0.53441045  0.87183626    -0.13100
C877        C  0.67690315  0.54914566  0.80466405    -0.11500
C878        C  0.64822608  0.53582939  0.83125746    -0.13100
C879        C  0.00693721  0.14833239  0.76913984    -0.11500
C880        C  0.97957416  0.13481782  0.74095701    -0.13100
C881        C  0.87674131  0.96333118  0.61260423    -0.11500
C882        C  0.86934204  0.92740047  0.60523996    -0.13100
C883        C  0.77733403  0.37509056  0.72895101    -0.11500
C884        C  0.78451001  0.41094590  0.73630181    -0.13100
C885        C  0.81437531  0.17461566  0.67597498    -0.11500
C886        C  0.84039419  0.16412644  0.66601776    -0.13100
C887        C  0.67245412  0.13609529  0.84407009    -0.11500
C888        C  0.64359063  0.12264607  0.87047214    -0.13100
C889        C  0.85925278  0.32090639  0.80291614    -0.11500
C890        C  0.87437151  0.34953615  0.82954108    -0.13100
C891        C  0.13958317  0.01532828  0.73939621    -0.11500
C892        C  0.12602499  0.98796007  0.76756410    -0.13100
C893        C  0.06720039  0.95403336  0.60328444    -0.11500
C894        C  0.03110621  0.92552591  0.61064611    -0.13100
C895        C  0.07057674  0.11726175  0.61184176    -0.11500
C896        C  0.04187192  0.12438948  0.60495356    -0.13100
C897        C  0.58634294  0.38348624  0.73832543    -0.11500
C898        C  0.62237280  0.41214104  0.73097080    -0.13100
C899        C  0.58343606  0.22053607  0.72997197    -0.11500
C900        C  0.61234976  0.21369269  0.73675921    -0.13100
C901        C  0.30857714  0.15559310  0.66572583    -0.11500
C902        C  0.34507471  0.18157631  0.67622262    -0.13100
C903        C  0.46187884  0.35067931  0.87221520    -0.11500
C904        C  0.44670177  0.32187120  0.84577079    -0.13100
C905        C  0.44513553  0.13641602  0.80347419    -0.11500
C906        C  0.45818571  0.12118420  0.83020462    -0.13100
C907        C  0.80770648  0.46930846  0.57373799    -0.11500
C908        C  0.79405340  0.48296707  0.60192083    -0.13100
C909        C  0.87446144  0.53696497  0.33035601    -0.11500
C910        C  0.85921411  0.55011590  0.30373286    -0.13100
C911        C  0.86062106  0.32358131  0.34436676    -0.11500
C912        C  0.87390459  0.35222264  0.37096579    -0.13100
C913        C  0.97570631  0.49690443  0.49922896    -0.11500
C914        C  0.01189991  0.50678850  0.50991019    -0.13100
C915        C  0.12763075  0.45388087  0.70577780    -0.11500
C916        C  0.11244060  0.46697724  0.67904669    -0.13100
C917        C  0.12688621  0.68074055  0.66490379    -0.11500
C918        C  0.11351300  0.65195681  0.63845690    -0.13100
C919        C  0.51423316  0.32236437  0.60283147    -0.11500
C920        C  0.52792968  0.34995810  0.57491311    -0.13100
C921        C  0.69973318  0.45246352  0.44700440    -0.11500
C922        C  0.73560164  0.45966989  0.43953303    -0.13100
C923        C  0.64551275  0.53418543  0.37285605    -0.11500
C924        C  0.67414636  0.54930827  0.34620184    -0.13100
C925        C  0.46055613  0.34753343  0.33198430    -0.11500
C926        C  0.44707637  0.31869559  0.30558684    -0.13100
C927        C  0.49917861  0.48954880  0.49975910    -0.11500
C928        C  0.48874697  0.51562169  0.50960168    -0.13100
C929        C  0.28814089  0.55237587  0.56300956    -0.11500
C930        C  0.25219877  0.54493895  0.57051613    -0.13100
C931        C  0.52755273  0.65710692  0.67757896    -0.11500
C932        C  0.54077846  0.68572038  0.70420373    -0.13100
C933        C  0.31339555  0.45577368  0.66336875    -0.11500
C934        C  0.34222859  0.47098703  0.63691848    -0.13100
C935        C  0.44950216  0.71739282  0.57000742    -0.11500
C936        C  0.44237236  0.74607179  0.56305747    -0.13100
C937        C  0.25030657  0.70636838  0.56473889    -0.11500
C938        C  0.27886507  0.74244248  0.57196057    -0.13100
C939        C  0.52592514  0.88346194  0.63672110    -0.11500
C940        C  0.54110547  0.87026457  0.66336629    -0.13100
C941        C  0.34062863  0.88239957  0.67903259    -0.11500
C942        C  0.31193037  0.86723801  0.70561958    -0.13100
C943        C  0.67465593  0.20325822  0.60109755    -0.11500
C944        C  0.64706590  0.18952154  0.57315770    -0.13100
C945        C  0.73686604  0.29775364  0.44486024    -0.11500
C946        C  0.70821855  0.26173917  0.43755451    -0.13100
C947        C  0.54506176  0.25861905  0.44619828    -0.11500
C948        C  0.53820369  0.28751049  0.43942442    -0.13100
C949        C  0.50637547  0.02042731  0.49937974    -0.11500
C950        C  0.48040808  0.98387642  0.50965708    -0.13100
C951        C  0.64661084  0.12224212  0.33004075    -0.11500
C952        C  0.67539325  0.13738418  0.30353393    -0.13100
C953        C  0.46098900  0.12047687  0.37253772    -0.11500
C954        C  0.44572649  0.13349768  0.34580753    -0.13100
C955        C  0.14082543  0.13574723  0.24013148    -0.11500
C956        C  0.12723561  0.14947590  0.26830618    -0.13100
C957        C  0.01030793  0.21582261  0.47111845    -0.11500
C958        C  0.98162543  0.20251372  0.49770793    -0.13100
C959        C  0.20824245  0.20095878  0.53828324    -0.11500
C960        C  0.19512724  0.21621494  0.51163174    -0.13100
C961        C  0.19345275  0.52173709  0.40697912    -0.11500
C962        C  0.17995113  0.53523460  0.43546895    -0.13100
C963        C  0.15513280  0.31761138  0.34282388    -0.11500
C964        C  0.16502758  0.35381891  0.33221954    -0.13100
C965        C  0.33921608  0.46938179  0.17729172    -0.11500
C966        C  0.31035252  0.45587662  0.20369143    -0.13100
C967        C  0.11201585  0.46993234  0.13666835    -0.11500
C968        C  0.12504818  0.45466830  0.16338454    -0.13100
C969        C  0.98007449  0.85596493  0.23952736    -0.11500
C970        C  0.00769028  0.86968801  0.26744383    -0.13100
C971        C  0.11037615  0.04154447  0.39521587    -0.11500
C972        C  0.11761850  0.07741887  0.40259075    -0.13100
C973        C  0.20741315  0.01600710  0.49597041    -0.11500
C974        C  0.19225156  0.98739647  0.46932078    -0.13100
C975        C  0.00550565  0.80257834  0.51045746    -0.11500
C976        C  0.97667267  0.78912960  0.53689524    -0.13100
C977        C  0.31288503  0.80146668  0.40746160    -0.11500
C978        C  0.34026849  0.81499639  0.43562215    -0.13100
C979        C  0.21027709  0.63005689  0.27906984    -0.11500
C980        C  0.20293650  0.59413573  0.27175534    -0.13100
C981        C  0.17350874  0.83060207  0.33256237    -0.11500
C982        C  0.14745906  0.84106996  0.34246557    -0.13100
C983        C  0.12851120  0.68404827  0.20533883    -0.11500
C984        C  0.11335836  0.65525176  0.17888555    -0.13100
C985        C  0.34357726  0.88263095  0.13779077    -0.11500
C986        C  0.31485884  0.86928709  0.16433918    -0.13100
C987        C  0.86116450  0.01659528  0.24129426    -0.11500
C988        C  0.84746156  0.98903683  0.26925125    -0.13100
C989        C  0.91968970  0.05021672  0.40472183    -0.11500
C990        C  0.95570916  0.07885995  0.39733111    -0.13100
C991        C  0.94534799  0.88010824  0.40308731    -0.11500
C992        C  0.91648433  0.88703459  0.39634581    -0.13100
C993        C  0.79521296  0.01746573  0.53877880    -0.11500
C994        C  0.78004772  0.98868606  0.51230506    -0.13100
C995        C  0.79137189  0.78794186  0.49677505    -0.11500
C996        C  0.77834811  0.80321000  0.47005341    -0.13100
C997        C  0.47296179  0.68209015  0.40610473    -0.11500
C998        C  0.45950481  0.65475599  0.43430414    -0.13100
C999        C  0.67831630  0.84850421  0.34290471    -0.11500
C1000       C  0.64181374  0.82251258  0.33247156    -0.13100
C1001       C  0.40386469  0.78400990  0.27839045    -0.11500
C1002       C  0.37519067  0.79118040  0.27148140    -0.13100
C1003       C  0.36464907  0.59227293  0.27741437    -0.11500
C1004       C  0.40071047  0.62080666  0.26999891    -0.13100
C1005       C  0.54151873  0.86775204  0.20503219    -0.11500
C1006       C  0.52839101  0.88300819  0.17839684    -0.13100
C1007       C  0.52589229  0.65430357  0.13614040    -0.11500
C1008       C  0.54101645  0.68294356  0.16275585    -0.13100
loop_ 
_geom_bond_atom_site_label_1 
_geom_bond_atom_site_label_2 
_geom_bond_distance 
_geom_bond_site_symmetry_2 
_ccdc_geom_bond_type 
O1           C16   1.282       .  A
O1           Al9   1.971       .  S
C2           O12   1.277       .  A
C2            O3   1.267       .  A
C2         C1004   1.423       .  S
O3           Al5   1.871       .  S
O4            C6   1.246       .  A
O4           Al5   1.890       .  S
Al5          O13   1.890       .  S
Al5          O15   1.893       .  S
Al5          O14   1.780       .  S
C6           O19   1.252       .  A
C6         C1001   1.425       .  S
O7           C17   1.265       .  A
O7           Al9   1.949       .  S
O8           C21   1.265       .  A
O8          Al18   1.923       .  S
Al9          O22   1.878       .  S
Al9          O19   1.907       .  S
Al9          O14   1.783       .  S
O10          C17   1.246       .  A
O10         Al18   1.859       .  S
O11          C20   1.250       .  A
O11         Al18   1.912       .  S
O12         Al18   1.942       .  S
O13          C20   1.248       .  A
O14         Al18   1.790       .  S
O15          C16   1.274       .  A
C16        C1005   1.441       .  S
C17         C997   1.449       .  S
C20        C1008   1.440       .  S
C21          O22   1.255       .  A
C21        C1000   1.437       .  S
O23          C38   1.255       .  A
O23         Al31   1.878       .  S
C24          O34   1.267   1_545  A
C24          O25   1.277       .  A
C24         C989   1.424       .  S
O25         Al27   1.943   1_545  S
O26          C28   1.246       .  A
O26         Al27   1.858       .  S
Al27         O35   1.912       .  S
Al27         O37   1.923       .  S
Al27         O36   1.789       .  S
C28          O41   1.265       .  A
C28         C988   1.448       .  S
O29          C39   1.252       .  A
O29         Al31   1.906       .  S
O30          C43   1.274       .  A
O30         Al40   1.892       .  S
Al31         O44   1.971       .  S
Al31         O41   1.948       .  S
Al31         O36   1.782       .  S
O32          C39   1.246       .  A
O32         Al40   1.890       .  S
O33          C42   1.248       .  A
O33         Al40   1.891       .  S
O34         Al40   1.872       .  S
O35          C42   1.250       .  A
O36         Al40   1.780       .  S
O37          C38   1.265       .  A
C38         C999   1.437       .  S
C39         C992   1.425       .  S
C42         C994   1.440       .  S
C43          O44   1.282       .  A
C43         C996   1.440       .  S
O45          C60   1.282       .  A
O45         Al53   1.969       .  S
C46          O56   1.277       .  A
C46          O47   1.267       .  A
C46        C1002   1.425       .  S
O47         Al49   1.872       .  S
O48          C50   1.246       .  A
O48         Al49   1.888       .  S
Al49         O57   1.889       .  S
Al49         O59   1.893       .  S
Al49         O58   1.780       .  S
C50          O63   1.252       .  A
C50         C979   1.425       .  S
O51          C61   1.265       .  A
O51         Al53   1.947       .  S
O52          C65   1.266       .  A
O52         Al62   1.926       .  S
Al53         O66   1.881       .  S
Al53         O63   1.907       .  S
Al53         O58   1.783       .  S
O54          C61   1.246       .  A
O54         Al62   1.860       .  S
O55          C64   1.250       .  A
O55         Al62   1.913       .  S
O56         Al62   1.944       .  S
O57          C64   1.247       .  A
O58         Al62   1.790       .  S
O59          C60   1.274       .  A
C60         C983   1.440       .  S
C61         C977   1.449       .  S
C64         C986   1.440       .  S
C65          O66   1.255       .  A
C65         C981   1.440       .  S
O67          C82   1.255       .  A
O67         Al75   1.881       .  S
C68          O78   1.267   1_655  A
C68          O69   1.277       .  A
C68         C991   1.425       .  S
O69         Al71   1.945   1_655  S
O70          C72   1.246       .  A
O70         Al71   1.859       .  S
Al71         O79   1.913       .  S
Al71         O81   1.926       .  S
Al71         O80   1.790       .  S
C72          O85   1.265       .  A
C72         C970   1.448       .  S
O73          C83   1.252       .  A
O73         Al75   1.907       .  S
O74          C87   1.274       .  A
O74         Al84   1.893       .  S
Al75         O88   1.969       .  S
Al75         O85   1.947       .  S
Al75         O80   1.783       .  S
O76          C83   1.246       .  A
O76         Al84   1.888       .  S
O77          C86   1.247       .  A
O77         Al84   1.889       .  S
O78         Al84   1.873       .  S
O79          C86   1.250       .  A
O80         Al84   1.779       .  S
O81          C82   1.266       .  A
C82         C982   1.440       .  S
C83         C971   1.425   1_565  S
C86         C975   1.440       .  S
C87          O88   1.282       .  A
C87         C974   1.440       .  S
O89         C104   1.281       .  A
O89         Al97   1.968       .  S
C90         O100   1.277       .  A
C90          O91   1.267       .  A
C90         C980   1.425       .  S
O91         Al93   1.873       .  S
O92          C94   1.245       .  A
O92         Al93   1.886       .  S
Al93        O101   1.887       .  S
Al93        O103   1.894       .  S
Al93        O102   1.780       .  S
C94         O107   1.252       .  A
C94        C1003   1.423       .  S
O95         C105   1.264       .  A
O95         Al97   1.944       .  S
O96         C109   1.266       .  A
O96        Al106   1.926       .  S
Al97        O110   1.877       .  S
Al97        O107   1.905       .  S
Al97        O102   1.783       .  S
O98         C105   1.246       .  A
O98        Al106   1.860       .  S
O99         C108   1.251       .  A
O99        Al106   1.915       .  S
O100       Al106   1.944       .  S
O101        C108   1.247       .  A
O102       Al106   1.790       .  S
O103        C104   1.274       .  A
C104        C966   1.440       .  S
C105        C961   1.448       .  S
C108        C968   1.440       .  S
C109        O110   1.255       .  A
C109        C964   1.439       .  S
O111        C126   1.246       .  A
O111       Al119   1.860       .  S
C112        O122   1.275       .  A
C112        O113   1.282       .  A
C112        C957   1.440       .  S
O113       Al115   1.969       .  S
O114        C116   1.255       .  A
O114       Al115   1.878       .  S
Al115       O123   1.905       .  S
Al115       O125   1.944       .  S
Al115       O124   1.783       .  S
C116        O129   1.266       .  A
C116        C963   1.439       .  S
O117        C127   1.251       .  A
O117       Al119   1.916       .  S
O118        C131   1.268       .  A
O118       Al128   1.873       .  S
Al119       O132   1.944       .  S
Al119       O129   1.926       .  S
Al119       O124   1.790       .  S
O120        C127   1.247       .  A
O120       Al128   1.887       .  S
O121        C130   1.245   1_455  A
O121       Al128   1.886       .  S
O122       Al128   1.893       .  S
O123        C130   1.251   1_455  A
O124       Al128   1.779       .  S
O125        C126   1.264       .  A
C126        C956   1.447       .  S
C127        C960   1.441       .  S
C130        C990   1.423       .  S
C131        O132   1.277       .  A
C131        C972   1.425       .  S
O133        C148   1.255       .  A
O133       Al141   1.879       .  S
C134        O144   1.267       .  A
C134        O135   1.277       .  A
C134        C946   1.423       .  S
O135       Al137   1.943       .  S
O136        C138   1.246       .  A
O136       Al137   1.858       .  S
Al137       O145   1.912       .  S
Al137       O147   1.923       .  S
Al137       O146   1.789       .  S
C138        O151   1.265       .  A
C138        C944   1.448       .  S
O139        C149   1.252       .  A
O139       Al141   1.907       .  S
O140        C153   1.274       .  A
O140       Al150   1.892       .  S
Al141       O154   1.971       .  S
Al141       O151   1.948       .  S
Al141       O146   1.782       .  S
O142        C149   1.246       .  A
O142       Al150   1.890       .  S
O143        C152   1.248       .  A
O143       Al150   1.891       .  S
O144       Al150   1.871       .  S
O145        C152   1.250       .  A
O146       Al150   1.780       .  S
O147        C148   1.265       .  A
C148        C949   1.437       .  S
C149        C947   1.425       .  S
C152        C951   1.440       .  S
C153        O154   1.282       .  A
C153        C953   1.440       .  S
O155        C170   1.282       .  A
O155       Al163   1.971       .  S
C156        O166   1.277       .  A
C156        O157   1.267       .  A
C156        C938   1.423       .  S
O157       Al159   1.871       .  S
O158        C160   1.246       .  A
O158       Al159   1.890       .  S
Al159       O167   1.890       .  S
Al159       O169   1.892       .  S
Al159       O168   1.780       .  S
C160        O173   1.252       .  A
C160        C936   1.425       .  S
O161        C171   1.265       .  A
O161       Al163   1.949       .  S
O162        C175   1.265       .  A
O162       Al172   1.923       .  S
Al163       O176   1.878       .  S
Al163       O173   1.907       .  S
Al163       O168   1.783       .  S
O164        C171   1.246       .  A
O164       Al172   1.859       .  S
O165        C174   1.250       .  A
O165       Al172   1.912       .  S
O166       Al172   1.942       .  S
O167        C174   1.248       .  A
O168       Al172   1.790       .  S
O169        C170   1.274       .  A
C170        C939   1.441       .  S
C171        C978   1.449       .  S
C174        C941   1.440       .  S
C175        O176   1.255       .  A
C175        C950   1.437       .  S
O177        C192   1.282       .  A
O177       Al185   1.969       .  S
C178        O188   1.277       .  A
C178        O179   1.267       .  A
C178        C935   1.425       .  S
O179       Al181   1.873       .  S
O180        C182   1.246       .  A
O180       Al181   1.887       .  S
Al181       O189   1.888       .  S
Al181       O191   1.893       .  S
Al181       O190   1.780       .  S
C182        O195   1.252       .  A
C182        C929   1.425       .  S
O183        C193   1.265       .  A
O183       Al185   1.947       .  S
O184        C197   1.266       .  A
O184       Al194   1.926       .  S
Al185       O198   1.880       .  S
Al185       O195   1.907       .  S
Al185       O190   1.783       .  S
O186        C193   1.246       .  A
O186       Al194   1.860       .  S
O187        C196   1.250       .  A
O187       Al194   1.913       .  S
O188       Al194   1.944       .  S
O189        C196   1.247       .  A
O190       Al194   1.790       .  S
O191        C192   1.274       .  A
C192        C934   1.440       .  S
C193        C998   1.449       .  S
C196        C931   1.440       .  S
C197        O198   1.255       .  A
C197        C928   1.440       .  S
O199        C214   1.255       .  A
O199       Al207   1.880       .  S
C200        O210   1.267       .  A
C200        O201   1.277       .  A
C200        C948   1.425       .  S
O201       Al203   1.945       .  S
O202        C204   1.246       .  A
O202       Al203   1.859       .  S
Al203       O211   1.913       .  S
Al203       O213   1.926       .  S
Al203       O212   1.789       .  S
C204        O217   1.265       .  A
C204        C920   1.448       .  S
O205        C215   1.252       .  A
O205       Al207   1.907       .  S
O206        C219   1.274       .  A
O206       Al216   1.893       .  S
Al207       O220   1.969       .  S
Al207       O217   1.946       .  S
Al207       O212   1.783       .  S
O208        C215   1.245       .  A
O208       Al216   1.887       .  S
O209        C218   1.247       .  A
O209       Al216   1.889       .  S
O210       Al216   1.873       .  S
O211        C218   1.250       .  A
O212       Al216   1.779       .  S
O213        C214   1.266       .  A
C214        C927   1.440       .  S
C215        C921   1.424       .  S
C218        C925   1.440       .  S
C219        O220   1.282       .  A
C219        C923   1.439       .  S
O221        C236   1.282       .  A
O221       Al229   1.969       .  S
C222        O232   1.277       .  A
C222        O223   1.267       .  A
C222        C930   1.425       .  S
O223       Al225   1.873       .  S
O224        C226   1.245       .  A
O224       Al225   1.887       .  S
Al225       O233   1.888       .  S
Al225       O235   1.894       .  S
Al225       O234   1.780       .  S
C226        O239   1.251       .  A
C226        C937   1.423       .  S
O227        C237   1.265       .  A
O227       Al229   1.944       .  S
O228        C241   1.266       .  A
O228       Al238   1.925       .  S
Al229       O242   1.876       .  S
Al229       O239   1.904       .  S
Al229       O234   1.783       .  S
O230        C237   1.246       .  A
O230       Al238   1.860       .  S
O231        C240   1.251       .  A
O231       Al238   1.915       .  S
O232       Al238   1.943       .  S
O233        C240   1.247       .  A
O234       Al238   1.790       .  S
O235        C236   1.274       .  A
C236        C918   1.440       .  S
C237        C962   1.448       .  S
C240        C916   1.440       .  S
C241        O242   1.254       .  A
C241        C914   1.438       .  S
O243        C258   1.254       .  A
O243       Al251   1.877       .  S
C244        O254   1.268       .  A
C244        O245   1.277       .  A
C244        C922   1.425       .  S
O245       Al247   1.943       .  S
O246        C248   1.246       .  A
O246       Al247   1.860       .  S
Al247       O255   1.915       .  S
Al247       O257   1.925       .  S
Al247       O256   1.790       .  S
C248        O261   1.265       .  A
C248        C907   1.447       .  S
O249        C259   1.251       .  A
O249       Al251   1.905       .  S
O250        C263   1.275       .  A
O250       Al260   1.893       .  S
Al251       O264   1.969       .  S
Al251       O261   1.944       .  S
Al251       O256   1.783       .  S
O252        C259   1.245       .  A
O252       Al260   1.886       .  S
O253        C262   1.247       .  A
O253       Al260   1.887       .  S
O254       Al260   1.873       .  S
O255        C262   1.251       .  A
O256       Al260   1.779       .  S
O257        C258   1.266       .  A
C258        C913   1.438       .  S
C259        C945   1.423       .  S
C262        C909   1.441       .  S
C263        O264   1.282       .  A
C263        C912   1.440       .  S
O265        C280   1.255       .  A
O265       Al273   1.878       .  S
C266        O276   1.267       .  A
C266        O267   1.277       .  A
C266        C897   1.424       .  S
O267       Al269   1.943       .  S
O268        C270   1.246       .  A
O268       Al269   1.858       .  S
Al269       O277   1.912       .  S
Al269       O279   1.923       .  S
Al269       O278   1.789       .  S
C270        O283   1.265       .  A
C270        C919   1.448       .  S
O271        C281   1.252       .  A
O271       Al273   1.907       .  S
O272        C285   1.274       .  A
O272       Al282   1.892       .  S
Al273       O286   1.971       .  S
Al273       O283   1.947       .  S
Al273       O278   1.782       .  S
O274        C281   1.246       .  A
O274       Al282   1.890       .  S
O275        C284   1.248       .  A
O275       Al282   1.891       .  S
O276       Al282   1.872       .  S
O277        C284   1.250       .  A
O278       Al282   1.780       .  S
O279        C280   1.265       .  A
C280        C902   1.438       .  S
C281        C899   1.425       .  S
C284        C904   1.440       .  S
C285        O286   1.282       .  A
C285        C905   1.440       .  S
O287        C302   1.282       .  A
O287       Al295   1.972       .  S
C288        O298   1.277       .  A
C288        O289   1.267   1_565  A
C288        C893   1.424       .  S
O289       Al291   1.871       .  S
O290        C292   1.246       .  A
O290       Al291   1.889       .  S
Al291       O299   1.890       .  S
Al291       O301   1.893       .  S
Al291       O300   1.780       .  S
C292        O305   1.252       .  A
C292        C895   1.425       .  S
O293        C303   1.265       .  A
O293       Al295   1.949       .  S
O294        C307   1.265       .  A
O294       Al304   1.924       .  S
Al295       O308   1.878       .  S
Al295       O305   1.907       .  S
Al295       O300   1.783       .  S
O296        C303   1.246       .  A
O296       Al304   1.859       .  S
O297        C306   1.250       .  A
O297       Al304   1.913       .  S
O298       Al304   1.943   1_565  S
O299        C306   1.248       .  A
O300       Al304   1.790       .  S
O301        C302   1.274       .  A
C302        C959   1.441       .  S
C303        C891   1.449       .  S
C306        C973   1.440       .  S
C307        O308   1.255       .  A
C307        C901   1.438       .  S
O309        C324   1.255       .  A
O309       Al317   1.881       .  S
C310        O320   1.267       .  A
C310        O311   1.277       .  A
C310        C900   1.425       .  S
O311       Al313   1.945       .  S
O312        C314   1.246       .  A
O312       Al313   1.859       .  S
Al313       O321   1.913       .  S
Al313       O323   1.926       .  S
Al313       O322   1.790       .  S
C314        O327   1.265       .  A
C314        C943   1.448       .  S
O315        C325   1.252       .  A
O315       Al317   1.907       .  S
O316        C329   1.274       .  A
O316       Al326   1.893       .  S
Al317       O330   1.969       .  S
Al317       O327   1.946       .  S
Al317       O322   1.783       .  S
O318        C325   1.246       .  A
O318       Al326   1.888       .  S
O319        C328   1.247       .  A
O319       Al326   1.889       .  S
O320       Al326   1.873       .  S
O321        C328   1.250       .  A
O322       Al326   1.779       .  S
O323        C324   1.266       .  A
C324        C885   1.440       .  S
C325        C883   1.425       .  S
C328        C887   1.440       .  S
C329        O330   1.282       .  A
C329        C889   1.439       .  S
O331        C346   1.282       .  A
O331       Al339   1.969       .  S
C332        O342   1.277       .  A
C332        O333   1.267   1_455  A
C332        C896   1.425       .  S
O333       Al335   1.872       .  S
O334        C336   1.246       .  A
O334       Al335   1.888       .  S
Al335       O343   1.889       .  S
Al335       O345   1.893       .  S
Al335       O344   1.780       .  S
C336        O349   1.252       .  A
C336        C881   1.425   1_545  S
O337        C347   1.265       .  A
O337       Al339   1.947       .  S
O338        C351   1.266       .  A
O338       Al348   1.926       .  S
Al339       O352   1.880       .  S
Al339       O349   1.907       .  S
Al339       O344   1.783       .  S
O340        C347   1.246       .  A
O340       Al348   1.860       .  S
O341        C350   1.250       .  A
O341       Al348   1.913       .  S
O342       Al348   1.944   1_455  S
O343        C350   1.247       .  A
O344       Al348   1.790       .  S
O345        C346   1.274       .  A
C346        C993   1.440       .  S
C347        C880   1.449       .  S
C350        C958   1.440       .  S
C351        O352   1.255       .  A
C351        C886   1.440       .  S
O353        C368   1.255       .  A
O353       Al361   1.878       .  S
C354        O364   1.268       .  A
C354        O355   1.277       .  A
C354        C884   1.425       .  S
O355       Al357   1.944       .  S
O356        C358   1.246       .  A
O356       Al357   1.860       .  S
Al357       O365   1.916       .  S
Al357       O367   1.926       .  S
Al357       O366   1.790       .  S
C358        O371   1.264       .  A
C358        C908   1.448       .  S
O359        C369   1.251       .  A
O359       Al361   1.905       .  S
O360        C373   1.275       .  A
O360       Al370   1.893       .  S
Al361       O374   1.969       .  S
Al361       O371   1.944       .  S
Al361       O366   1.783       .  S
O362        C369   1.245       .  A
O362       Al370   1.886       .  S
O363        C372   1.247       .  A
O363       Al370   1.887       .  S
O364       Al370   1.873       .  S
O365        C372   1.251       .  A
O366       Al370   1.779       .  S
O367        C368   1.266       .  A
C368        C873   1.439       .  S
C369        C898   1.424       .  S
C372        C875   1.441       .  S
C373        O374   1.282       .  A
C373        C877   1.440       .  S
O375        C390   1.282       .  A
O375       Al383   1.969       .  S
C376        O386   1.277       .  A
C376        O377   1.267       .  A
C376        C882   1.425       .  S
O377       Al379   1.873       .  S
O378        C380   1.245       .  A
O378       Al379   1.886       .  S
Al379       O387   1.887       .  S
Al379       O389   1.894       .  S
Al379       O388   1.780       .  S
C380        O393   1.251       .  A
C380        C894   1.423   1_655  S
O381        C391   1.265       .  A
O381       Al383   1.945       .  S
O382        C395   1.266       .  A
O382       Al392   1.926       .  S
Al383       O396   1.877       .  S
Al383       O393   1.905       .  S
Al383       O388   1.783       .  S
O384        C391   1.246       .  A
O384       Al392   1.860       .  S
O385        C394   1.251       .  A
O385       Al392   1.915       .  S
O386       Al392   1.944       .  S
O387        C394   1.247       .  A
O388       Al392   1.790       .  S
O389        C390   1.274       .  A
C390        C976   1.440       .  S
C391        C871   1.448       .  S
C394        C995   1.440       .  S
C395        O396   1.255       .  A
C395        C874   1.439       .  S
O397        C412   1.254       .  A
O397       Al405   1.876       .  S
C398        O408   1.267       .  A
C398        O399   1.277       .  A
C398        C869   1.425       .  S
O399       Al401   1.944       .  S
O400        C402   1.246       .  A
O400       Al401   1.860       .  S
Al401       O409   1.915       .  S
Al401       O411   1.925       .  S
Al401       O410   1.789       .  S
C402        O415   1.265       .  A
C402        C863   1.447       .  S
O403        C413   1.251       .  A
O403       Al405   1.905       .  S
O404        C417   1.275       .  A
O404       Al414   1.893       .  S
Al405       O418   1.969       .  S
Al405       O415   1.944       .  S
Al405       O410   1.783       .  S
O406        C413   1.245       .  A
O406       Al414   1.886       .  S
O407        C416   1.247       .  A
O407       Al414   1.888       .  S
O408       Al414   1.873       .  S
O409        C416   1.251       .  A
O410       Al414   1.779       .  S
O411        C412   1.266       .  A
C412        C867   1.438       .  S
C413        C866   1.423       .  S
C416        C940   1.441       .  S
C417        O418   1.282       .  A
C417        C932   1.440       .  S
O419        C434   1.282       .  A
O419       Al427   1.969       .  S
C420        O430   1.277       .  A
C420        O421   1.267       .  A
C420        C857   1.425       .  S
O421       Al423   1.873       .  S
O422        C424   1.245       .  A
O422       Al423   1.887       .  S
Al423       O431   1.887       .  S
Al423       O433   1.894       .  S
Al423       O432   1.780       .  S
C424        O437   1.251       .  A
C424        C855   1.423   1_565  S
O425        C435   1.265       .  A
O425       Al427   1.945       .  S
O426        C439   1.266       .  A
O426       Al436   1.925       .  S
Al427       O440   1.876       .  S
Al427       O437   1.905       .  S
Al427       O432   1.783       .  S
O428        C435   1.246       .  A
O428       Al436   1.860       .  S
O429        C438   1.251       .  A
O429       Al436   1.915       .  S
O430       Al436   1.943       .  S
O431        C438   1.247       .  A
O432       Al436   1.790       .  S
O433        C434   1.274       .  A
C434        C860   1.440       .  S
C435        C872   1.448       .  S
C438        C861   1.440   1_556  S
C439        O440   1.254       .  A
C439        C868   1.438       .  S
O441        C456   1.255       .  A
O441       Al449   1.879       .  S
C442        O452   1.267       .  A
C442        O443   1.277       .  A
C442        C865   1.423       .  S
O443       Al445   1.943       .  S
O444        C446   1.246       .  A
O444       Al445   1.858       .  S
Al445       O453   1.912       .  S
Al445       O455   1.923       .  S
Al445       O454   1.789       .  S
C446        O459   1.265       .  A
C446        C850   1.448       .  S
O447        C457   1.252       .  A
O447       Al449   1.907       .  S
O448        C461   1.274       .  A
O448       Al458   1.892       .  S
Al449       O462   1.971       .  S
Al449       O459   1.948       .  S
Al449       O454   1.782       .  S
O450        C457   1.246       .  A
O450       Al458   1.890       .  S
O451        C460   1.248       .  A
O451       Al458   1.891       .  S
O452       Al458   1.871       .  S
O453        C460   1.250       .  A
O454       Al458   1.780       .  S
O455        C456   1.265       .  A
C456        C851   1.438       .  S
C457        C853   1.425       .  S
C460        C933   1.440       .  S
C461        O462   1.282       .  A
C461        C915   1.440       .  S
O463        C478   1.282       .  A
O463       Al471   1.971       .  S
C464        O474   1.277       .  A
C464        O465   1.267   1_655  A
C464        C856   1.423       .  S
O465       Al467   1.871       .  S
O466        C468   1.246       .  A
O466       Al467   1.890       .  S
Al467       O475   1.890       .  S
Al467       O477   1.893       .  S
Al467       O476   1.780       .  S
C468        O481   1.252       .  A
C468        C844   1.425       .  S
O469        C479   1.265       .  A
O469       Al471   1.949       .  S
O470        C483   1.265       .  A
O470       Al480   1.923       .  S
Al471       O484   1.879       .  S
Al471       O481   1.907       .  S
Al471       O476   1.783       .  S
O472        C479   1.246       .  A
O472       Al480   1.859       .  S
O473        C482   1.250       .  A
O473       Al480   1.912       .  S
O474       Al480   1.942   1_655  S
O475        C482   1.248       .  A
O476       Al480   1.790       .  S
O477        C478   1.274       .  A
C478        C845   1.441       .  S
C479        C879   1.449       .  S
C482        C848   1.440   1_556  S
C483        O484   1.255       .  A
C483        C852   1.438       .  S
O485        C500   1.255       .  A
O485       Al493   1.881       .  S
C486        O496   1.267       .  A
C486        O487   1.277       .  A
C486        C854   1.425       .  S
O487       Al489   1.945       .  S
O488        C490   1.246       .  A
O488       Al489   1.859       .  S
Al489       O497   1.913       .  S
Al489       O499   1.926       .  S
Al489       O498   1.790       .  S
C490        O503   1.265       .  A
C490        C840   1.448       .  S
O491        C501   1.252       .  A
O491       Al493   1.907       .  S
O492        C505   1.274       .  A
O492       Al502   1.893       .  S
Al493       O506   1.969       .  S
Al493       O503   1.946       .  S
Al493       O498   1.783       .  S
O494        C501   1.245       .  A
O494       Al502   1.887       .  S
O495        C504   1.247       .  A
O495       Al502   1.889       .  S
O496       Al502   1.873       .  S
O497        C504   1.250       .  A
O498       Al502   1.779       .  S
O499        C500   1.266       .  A
C500        C842   1.440       .  S
C501        C870   1.425       .  S
C504        C917   1.440       .  S
C505        O506   1.282       .  A
C505        C942   1.440       .  S
O507        C522   1.282       .  A
O507       Al515   1.969       .  S
C508        O518   1.277       .  A
C508        O509   1.267   1_545  A
C508        C843   1.425       .  S
O509       Al511   1.873       .  S
O510        C512   1.246   1_455  A
O510       Al511   1.887       .  S
Al511       O519   1.889       .  S
Al511       O521   1.893       .  S
Al511       O520   1.780       .  S
C512        O525   1.252   1_655  A
C512        C858   1.424       .  S
O513        C523   1.265       .  A
O513       Al515   1.947       .  S
O514        C527   1.266       .  A
O514       Al524   1.926       .  S
Al515       O528   1.880       .  S
Al515       O525   1.907       .  S
Al515       O520   1.783       .  S
O516        C523   1.246       .  A
O516       Al524   1.860       .  S
O517        C526   1.250       .  A
O517       Al524   1.913       .  S
O518       Al524   1.944   1_545  S
O519        C526   1.247       .  A
O520       Al524   1.790       .  S
O521        C522   1.274       .  A
C522        C837   1.440       .  S
C523        C892   1.449       .  S
C526        C836   1.440   1_556  S
C527        O528   1.255       .  A
C527        C841   1.440       .  S
O529        C544   1.281       .  A
O529       Al537   1.969       .  S
C530        O540   1.277       .  A
C530        O531   1.267       .  A
C530        C831   1.425       .  S
O531       Al533   1.873       .  S
O532        C534   1.246       .  A
O532       Al533   1.888       .  S
Al533       O541   1.889       .  S
Al533       O543   1.893       .  S
Al533       O542   1.780       .  S
C534        O547   1.252       .  A
C534        C830   1.425       .  S
O535        C545   1.265       .  A
O535       Al537   1.947   1_554  S
O536        C549   1.266       .  A
O536       Al546   1.926       .  S
Al537       O550   1.880       .  S
Al537       O547   1.907       .  S
Al537       O542   1.783       .  S
O538        C545   1.246       .  A
O538       Al546   1.860   1_554  S
O539        C548   1.250       .  A
O539       Al546   1.913       .  S
O540       Al546   1.944       .  S
O541        C548   1.247       .  A
O542       Al546   1.790       .  S
O543        C544   1.274       .  A
C544        C903   1.440       .  S
C545        C827   1.449       .  S
C548        C878   1.440       .  S
C549        O550   1.255       .  A
C549        C834   1.440       .  S
O551        C566   1.255       .  A
O551       Al559   1.881       .  S
C552        O562   1.267       .  A
C552        O553   1.277       .  A
C552        C823   1.425       .  S
O553       Al555   1.945       .  S
O554        C556   1.246       .  A
O554       Al555   1.859   1_556  S
Al555       O563   1.913       .  S
Al555       O565   1.926       .  S
Al555       O564   1.790       .  S
C556        O569   1.265       .  A
C556        C849   1.448       .  S
O557        C567   1.252       .  A
O557       Al559   1.907       .  S
O558        C571   1.274       .  A
O558       Al568   1.893       .  S
Al559       O572   1.969       .  S
Al559       O569   1.947   1_554  S
Al559       O564   1.783       .  S
O560        C567   1.246       .  A
O560       Al568   1.888       .  S
O561        C570   1.247       .  A
O561       Al568   1.889       .  S
O562       Al568   1.873       .  S
O563        C570   1.250       .  A
O564       Al568   1.779       .  S
O565        C566   1.266       .  A
C566        C833   1.440       .  S
C567        C825   1.425       .  S
C570        C965   1.440       .  S
C571        O572   1.282       .  A
C571       C1007   1.439       .  S
O573        C588   1.282       .  A
O573       Al581   1.968       .  S
C574        O584   1.277       .  A
C574        O575   1.267       .  A
C574        C829   1.425       .  S
O575       Al577   1.873       .  S
O576        C578   1.245       .  A
O576       Al577   1.886       .  S
Al577       O585   1.887       .  S
Al577       O587   1.894       .  S
Al577       O586   1.780       .  S
C578        O591   1.251       .  A
C578        C819   1.423       .  S
O579        C589   1.265       .  A
O579       Al581   1.945   1_554  S
O580        C593   1.266       .  A
O580       Al590   1.926       .  S
Al581       O594   1.877       .  S
Al581       O591   1.905       .  S
Al581       O586   1.783       .  S
O582        C589   1.246       .  A
O582       Al590   1.860   1_554  S
O583        C592   1.251       .  A
O583       Al590   1.915       .  S
O584       Al590   1.944       .  S
O585        C592   1.247       .  A
O586       Al590   1.790       .  S
O587        C588   1.274       .  A
C588        C888   1.440       .  S
C589        C817   1.448       .  S
C592        C906   1.440       .  S
C593        O594   1.254       .  A
C593        C822   1.438       .  S
O595        C610   1.255       .  A
O595       Al603   1.877       .  S
C596        O606   1.267       .  A
C596        O597   1.277       .  A
C596        C826   1.425       .  S
O597       Al599   1.944       .  S
O598        C600   1.246       .  A
O598       Al599   1.860   1_556  S
Al599       O607   1.915       .  S
Al599       O609   1.926       .  S
Al599       O608   1.790       .  S
C600        O613   1.264       .  A
C600        C864   1.447       .  S
O601        C611   1.251       .  A
O601       Al603   1.905       .  S
O602        C615   1.275       .  A
O602       Al612   1.893       .  S
Al603       O616   1.969       .  S
Al603       O613   1.944   1_554  S
Al603       O608   1.783       .  S
O604        C611   1.245       .  A
O604       Al612   1.886       .  S
O605        C614   1.247       .  A
O605       Al612   1.887       .  S
O606       Al612   1.873       .  S
O607        C614   1.251       .  A
O608       Al612   1.779       .  S
O609        C610   1.266       .  A
C610        C821   1.438       .  S
C611        C815   1.423       .  S
C614       C1006   1.441       .  S
C615        O616   1.282       .  A
C615        C985   1.440       .  S
O617        C632   1.255       .  A
O617       Al625   1.878       .  S
C618        O628   1.267       .  A
C618        O619   1.277       .  A
C618        C816   1.424       .  S
O619       Al621   1.943       .  S
O620        C622   1.246   1_554  A
O620       Al621   1.858       .  S
Al621       O629   1.912       .  S
Al621       O631   1.922       .  S
Al621       O630   1.789       .  S
C622        O635   1.265       .  A
C622        C839   1.448       .  S
O623        C633   1.252       .  A
O623       Al625   1.907       .  S
O624        C637   1.274       .  A
O624       Al634   1.892       .  S
Al625       O638   1.971       .  S
Al625       O635   1.948   1_554  S
Al625       O630   1.782       .  S
O626        C633   1.246       .  A
O626       Al634   1.889       .  S
O627        C636   1.248       .  A
O627       Al634   1.891       .  S
O628       Al634   1.872       .  S
O629        C636   1.250       .  A
O630       Al634   1.780       .  S
O631        C632   1.265       .  A
C632        C814   1.437       .  S
C633        C824   1.425       .  S
C636        C984   1.440       .  S
C637        O638   1.282       .  A
C637        C967   1.440       .  S
O639        C654   1.282       .  A
O639       Al647   1.971       .  S
C640        O650   1.277       .  A
C640        O641   1.267       .  A
C640        C820   1.423       .  S
O641       Al643   1.871       .  S
O642        C644   1.246       .  A
O642       Al643   1.890       .  S
Al643       O651   1.890       .  S
Al643       O653   1.893       .  S
Al643       O652   1.780       .  S
C644        O657   1.252       .  A
C644        C832   1.425       .  S
O645        C655   1.265       .  A
O645       Al647   1.949   1_554  S
O646        C659   1.265       .  A
O646       Al656   1.923       .  S
Al647       O660   1.878       .  S
Al647       O657   1.907       .  S
Al647       O652   1.783       .  S
O648        C655   1.246       .  A
O648       Al656   1.859   1_554  S
O649        C658   1.250       .  A
O649       Al656   1.912       .  S
O650       Al656   1.942       .  S
O651        C658   1.248       .  A
O652       Al656   1.790       .  S
O653        C654   1.274       .  A
C654        C876   1.441       .  S
C655        C812   1.449       .  S
C658        C890   1.440       .  S
C659        O660   1.255       .  A
C659        C813   1.437       .  S
O661        C676   1.255       .  A
O661       Al669   1.879       .  S
C662        O672   1.267   1_455  A
C662        O663   1.277   1_455  A
C662        C805   1.424       .  S
O663       Al665   1.943       .  S
O664        C666   1.246       .  A
O664       Al665   1.858       .  S
Al665       O673   1.913       .  S
Al665       O675   1.923       .  S
Al665       O674   1.789       .  S
C666        O679   1.265       .  A
C666        C969   1.448       .  S
O667        C677   1.252       .  A
O667       Al669   1.907       .  S
O668        C681   1.274       .  A
O668       Al678   1.892       .  S
Al669       O682   1.971       .  S
Al669       O679   1.948       .  S
Al669       O674   1.782       .  S
O670        C677   1.246       .  A
O670       Al678   1.890       .  S
O671        C680   1.248       .  A
O671       Al678   1.891       .  S
O672       Al678   1.871       .  S
O673        C680   1.250       .  A
O674       Al678   1.780       .  S
O675        C676   1.265       .  A
C676        C809   1.438       .  S
C677        C808   1.425       .  S
C680        C838   1.440   1_554  S
C681        O682   1.282       .  A
C681        C862   1.440       .  S
O683        C698   1.282       .  A
O683       Al691   1.971       .  S
C684        O694   1.277       .  A
C684        O685   1.267       .  A
C684        C803   1.423       .  S
O685       Al687   1.871       .  S
O686        C688   1.246       .  A
O686       Al687   1.890       .  S
Al687       O695   1.890       .  S
Al687       O697   1.893       .  S
Al687       O696   1.780       .  S
C688        O701   1.252       .  A
C688        C801   1.425       .  S
O689        C699   1.265       .  A
O689       Al691   1.949       .  S
O690        C703   1.265       .  A
O690       Al700   1.923       .  S
Al691       O704   1.878       .  S
Al691       O701   1.907       .  S
Al691       O696   1.783       .  S
O692        C699   1.246       .  A
O692       Al700   1.859       .  S
O693        C702   1.250       .  A
O693       Al700   1.912       .  S
O694       Al700   1.942       .  S
O695        C702   1.248       .  A
O696       Al700   1.790       .  S
O697        C698   1.274       .  A
C698        C910   1.441       .  S
C699        C828   1.449       .  S
C702        C924   1.440       .  S
C703        O704   1.255       .  A
C703        C810   1.438       .  S
O705        C720   1.255       .  A
O705       Al713   1.881       .  S
C706        O716   1.267   1_565  A
C706        O707   1.277       .  A
C706        C807   1.425       .  S
O707       Al709   1.945   1_565  S
O708        C710   1.246       .  A
O708       Al709   1.859       .  S
Al709       O717   1.913       .  S
Al709       O719   1.926       .  S
Al709       O718   1.790       .  S
C710        O723   1.265       .  A
C710        C987   1.448       .  S
O711        C721   1.252       .  A
O711       Al713   1.907       .  S
O712        C725   1.274       .  A
O712       Al722   1.893       .  S
Al713       O726   1.969       .  S
Al713       O723   1.946       .  S
Al713       O718   1.783       .  S
O714        C721   1.245       .  A
O714       Al722   1.887       .  S
O715        C724   1.247       .  A
O715       Al722   1.889       .  S
O716       Al722   1.873       .  S
O717        C724   1.250       .  A
O718       Al722   1.779       .  S
O719        C720   1.266       .  A
C720        C800   1.440       .  S
C721        C797   1.425   1_655  S
C724        C859   1.440   1_554  S
C725        O726   1.282       .  A
C725        C847   1.440       .  S
O727        C742   1.282       .  A
O727       Al735   1.969       .  S
C728        O738   1.277       .  A
C728        O729   1.267       .  A
C728        C802   1.425       .  S
O729       Al731   1.873       .  S
O730        C732   1.246       .  A
O730       Al731   1.887       .  S
Al731       O739   1.889       .  S
Al731       O741   1.893       .  S
Al731       O740   1.780       .  S
C732        O745   1.252       .  A
C732        C795   1.425       .  S
O733        C743   1.265       .  A
O733       Al735   1.947       .  S
O734        C747   1.266       .  A
O734       Al744   1.926       .  S
Al735       O748   1.880       .  S
Al735       O745   1.907       .  S
Al735       O740   1.783       .  S
O736        C743   1.246       .  A
O736       Al744   1.860       .  S
O737        C746   1.250       .  A
O737       Al744   1.913       .  S
O738       Al744   1.945       .  S
O739        C746   1.247       .  A
O740       Al744   1.790       .  S
O741        C742   1.274       .  A
C742        C952   1.440       .  S
C743        C811   1.449       .  S
C746        C911   1.440       .  S
C747        O748   1.255       .  A
C747        C799   1.440       .  S
O749        C764   1.282       .  A
O749       Al757   1.968       .  S
C750        O760   1.277       .  A
C750        O751   1.267       .  A
C750        C796   1.425       .  S
O751       Al753   1.873       .  S
O752        C754   1.245       .  A
O752       Al753   1.886       .  S
Al753       O761   1.887       .  S
Al753       O763   1.894       .  S
Al753       O762   1.780       .  S
C754        O767   1.252       .  A
C754        C804   1.423       .  S
O755        C765   1.265       .  A
O755       Al757   1.945       .  S
O756        C769   1.266       .  A
O756       Al766   1.925       .  S
Al757       O770   1.877       .  S
Al757       O767   1.905       .  S
Al757       O762   1.783       .  S
O758        C765   1.246       .  A
O758       Al766   1.860       .  S
O759        C768   1.251       .  A
O759       Al766   1.915       .  S
O760       Al766   1.943       .  S
O761        C768   1.247       .  A
O762       Al766   1.790       .  S
O763        C764   1.274       .  A
C764        C926   1.440       .  S
C765        C818   1.448       .  S
C768        C954   1.440       .  S
C769        O770   1.254       .  A
C769        C794   1.438       .  S
O771        C786   1.246       .  A
O771       Al779   1.860       .  S
C772        O782   1.275       .  A
C772        O773   1.282       .  A
C772        C835   1.440       .  S
O773       Al775   1.969       .  S
O774        C776   1.255       .  A
O774       Al775   1.877       .  S
Al775       O783   1.905       .  S
Al775       O785   1.944       .  S
Al775       O784   1.783       .  S
C776        O789   1.266       .  A
C776        C793   1.438       .  S
O777        C787   1.251       .  A
O777       Al779   1.915       .  S
O778        C791   1.267       .  A
O778       Al788   1.873       .  S
Al779       O792   1.944       .  S
Al779       O789   1.925       .  S
Al779       O784   1.790       .  S
O780        C787   1.247       .  A
O780       Al788   1.888       .  S
O781        C790   1.245       .  A
O781       Al788   1.886       .  S
O782       Al788   1.893       .  S
O783        C790   1.251       .  A
O784       Al788   1.779       .  S
O785        C786   1.265       .  A
C786        C955   1.447       .  S
C787        C846   1.441   1_554  S
C790        C806   1.423   1_545  S
C791        O792   1.277       .  A
C791        C798   1.425       .  S
C793        C794   1.208       .  T
C795        C796   1.200       .  T
C797        C798   1.200       .  T
C799        C800   1.209       .  T
C801        C802   1.201       .  T
C803        C804   1.200       .  T
C805        C806   1.200       .  T
C807        C808   1.201       .  T
C809        C810   1.208       .  T
C811        C812   1.216       .  T
C813        C814   1.208   1_656  T
C815        C816   1.200       .  T
C817        C818   1.215       .  T
C819        C820   1.200       .  T
C821        C822   1.208   1_564  T
C823        C824   1.201       .  T
C825        C826   1.200       .  T
C827        C828   1.216       .  T
C829        C830   1.200       .  T
C831        C832   1.200       .  T
C833        C834   1.209   1_554  T
C835        C836   1.209   1_545  T
C837        C838   1.209   1_455  T
C839        C840   1.215       .  T
C841        C842   1.209       .  T
C843        C844   1.201       .  T
C845        C846   1.210       .  T
C847        C848   1.209   1_655  T
C849        C850   1.215       .  T
C851        C852   1.208       .  T
C853        C854   1.201       .  T
C855        C856   1.200       .  T
C857        C858   1.200       .  T
C859        C860   1.209   1_545  T
C861        C862   1.210       .  T
C863        C864   1.215       .  T
C865        C866   1.199       .  T
C867        C868   1.208       .  T
C869        C870   1.200       .  T
C871        C872   1.215       .  T
C873        C874   1.209       .  T
C875        C876   1.210       .  T
C877        C878   1.209       .  T
C879        C880   1.216   1_455  T
C881        C882   1.201       .  T
C883        C884   1.200       .  T
C885        C886   1.209       .  T
C887        C888   1.209       .  T
C889        C890   1.209       .  T
C891        C892   1.216   1_545  T
C893        C894   1.200       .  T
C895        C896   1.200       .  T
C897        C898   1.200       .  T
C899        C900   1.201       .  T
C901        C902   1.208       .  T
C903        C904   1.209       .  T
C905        C906   1.209       .  T
C907        C908   1.215       .  T
C909        C910   1.210       .  T
C911        C912   1.209       .  T
C913        C914   1.208   1_655  T
C915        C916   1.210       .  T
C917        C918   1.209       .  T
C919        C920   1.215       .  T
C921        C922   1.200       .  T
C923        C924   1.209       .  T
C925        C926   1.209       .  T
C927        C928   1.209       .  T
C929        C930   1.200       .  T
C931        C932   1.209       .  T
C933        C934   1.209       .  T
C935        C936   1.201       .  T
C937        C938   1.199       .  T
C939        C940   1.210       .  T
C941        C942   1.209       .  T
C943        C944   1.215       .  T
C945        C946   1.200       .  T
C947        C948   1.201       .  T
C949        C950   1.208   1_545  T
C951        C952   1.209       .  T
C953        C954   1.210       .  T
C955        C956   1.215       .  T
C957        C958   1.209   1_455  T
C959        C960   1.210       .  T
C961        C962   1.215       .  T
C963        C964   1.209       .  T
C965        C966   1.209       .  T
C967        C968   1.210       .  T
C969        C970   1.215   1_655  T
C971        C972   1.201       .  T
C973        C974   1.209   1_545  T
C975        C976   1.209   1_455  T
C977        C978   1.216       .  T
C979        C980   1.201       .  T
C981        C982   1.209       .  T
C983        C984   1.209       .  T
C985        C986   1.209       .  T
C987        C988   1.215   1_545  T
C989        C990   1.200       .  T
C991        C992   1.200       .  T
C993        C994   1.209   1_545  T
C995        C996   1.210       .  T
C997        C998   1.216       .  T
C999       C1000   1.208       .  T
C1001      C1002   1.200       .  T
C1003      C1004   1.200       .  T
C1005      C1006   1.210       .  T
C1007      C1008   1.209       .  T
