geometry optimzed in LAMMPS
_audit_creation_date              2020-12-01 
_audit_creation_method            'lammps2cif' 
_symmetry_space_group_name_H-M    'P1' 
_symmetry_Int_Tables_number       1 
_symmetry_cell_setting            triclinic 
loop_ 
_symmetry_equiv_pos_as_xyz 
  x,y,z 
_cell_length_a                    72.67642213 
_cell_length_b                    72.78399239064431 
_cell_length_c                    29.158724364973732 
_cell_angle_alpha                 90.0398862412934 
_cell_angle_beta                  89.98640234631884 
_cell_angle_gamma                 90.01925637988204 
loop_ 
_atom_site_label 
_atom_site_type_symbol 
_atom_site_fract_x 
_atom_site_fract_y 
_atom_site_fract_z 
_atom_site_charge 
Fe1        Fe  0.84696871  0.25849474  0.47678835     1.65800
Fe2        Fe  0.88603845  0.23639945  0.50970963     1.73200
Fe3        Fe  0.85249664  0.21225088  0.45273452     1.54400
O4          O  0.82591748  0.21545753  0.47823150    -0.81400
O5          O  0.89890813  0.22322962  0.45633274    -0.79700
O6          O  0.82333272  0.24524182  0.49434380    -0.83900
O7          O  0.84205324  0.25494276  0.40840895    -0.78800
O8          O  0.85863846  0.19673740  0.51066977    -0.80500
O9          O  0.89408567  0.26092187  0.47983978    -0.83300
C10         C  0.84226279  0.24168667  0.38027871     0.97500
C11         C  0.81684032  0.22916481  0.49280791     1.04900
O12         O  0.86181180  0.23568694  0.47969117    -1.12300
O13         O  0.87566279  0.24953546  0.56621996    -0.74700
O14         O  0.85035058  0.26465043  0.54494456    -0.78200
O15         O  0.84556224  0.22514054  0.39166022    -0.78900
C16         C  0.86203982  0.25983063  0.57473434     0.96400
O17         O  0.86847221  0.27541129  0.45936213    -0.76800
O18         O  0.88141600  0.21216730  0.54458010    -0.82000
C19         C  0.89414825  0.21120153  0.42724528     0.99000
C20         C  0.87055737  0.19856643  0.54220825     1.04900
O21         O  0.87770626  0.20547393  0.42327003    -0.77700
C22         C  0.88577209  0.27468749  0.46317287     1.03200
Fe23       Fe  0.66032325  0.26269750  0.55306201     1.65800
Fe24       Fe  0.62310644  0.24175823  0.51001112     1.73200
Fe25       Fe  0.65395567  0.21728288  0.57396176     1.54400
O26         O  0.68066968  0.21953576  0.54950603    -0.81400
O27         O  0.60857280  0.22435022  0.55221493    -0.79700
O28         O  0.68521398  0.24950705  0.55651656    -0.83900
O29         O  0.65744928  0.26097560  0.62237609    -0.78800
O30         O  0.64736626  0.20163986  0.51573586    -0.80500
O31         O  0.61306891  0.26316276  0.54933075    -0.83300
C32         C  0.65899763  0.24745727  0.64964331     0.97500
C33         C  0.69120405  0.23337798  0.55062420     1.04900
O34         O  0.64580220  0.24033544  0.54563420    -1.12300
O35         O  0.63456254  0.25951369  0.46210343    -0.74700
O36         O  0.66360561  0.26470706  0.48367593    -0.78200
O37         O  0.66040109  0.23078371  0.63604809    -0.78900
C38         C  0.65092266  0.26474461  0.45392180     0.96400
O39         O  0.63808357  0.28052773  0.55149370    -0.76800
O40         O  0.63126814  0.22012363  0.46912804    -0.82000
C41         C  0.61231478  0.21448553  0.58669289     0.99000
C42         C  0.63913751  0.20492634  0.47791392     1.04900
O43         O  0.62852905  0.21192007  0.60118724    -0.77700
C44         C  0.62095399  0.27832833  0.55734181     1.03200
Fe45       Fe  0.84948217  0.27683941  0.97862155     1.65800
Fe46       Fe  0.88608632  0.29926105  0.02193985     1.73200
Fe47       Fe  0.85549101  0.32193354  0.95296885     1.54400
O48         O  0.84857178  0.30754410  0.89364300    -0.81400
O49         O  0.87778585  0.32221793  0.05787406    -0.79700
O50         O  0.85308069  0.27782387  0.90960121    -0.83900
O51         O  0.82438131  0.28990890  0.97357298    -0.78800
O52         O  0.88115249  0.32634525  0.92449396    -0.80500
O53         O  0.87373113  0.28368833  0.07293335    -0.83300
C54         C  0.81832711  0.30608597  0.97867269     0.97500
C55         C  0.85100978  0.29093021  0.88149061     1.04900
O56         O  0.86370009  0.29951719  0.98479215    -1.12300
O57         O  0.89686593  0.27625723  0.98927997    -0.74700
O58         O  0.87169338  0.25934986  0.98191239    -0.78200
O59         O  0.82883010  0.32001974  0.97860883    -0.78900
C60         C  0.88897910  0.26110467  0.98074153     0.96400
O61         O  0.84591212  0.27490513  0.04805039    -0.76800
O62         O  0.90090197  0.31495658  0.97579545    -0.82000
C63         C  0.87003021  0.33703881  0.04565311     0.99000
C64         C  0.89738797  0.32372929  0.93922644     1.04900
O65         O  0.86205935  0.33909324  0.00725892    -0.77700
C66         C  0.85780084  0.27691718  0.07949454     1.03200
Fe67       Fe  0.66105176  0.27710184  0.05526209     1.65800
Fe68       Fe  0.62159494  0.29913691  0.02724204     1.73200
Fe69       Fe  0.65621024  0.32312528  0.07509919     1.54400
O70         O  0.66068887  0.31146947  0.13799151    -0.81400
O71         O  0.62335781  0.32572191  0.00133426    -0.79700
O72         O  0.66914657  0.28248352  0.12220406    -0.83900
O73         O  0.68404543  0.28955362  0.02890251    -0.78800
O74         O  0.63043161  0.33205967  0.09889588    -0.80500
O75         O  0.63180740  0.28934864  0.96630357    -0.83300
C76         C  0.69174991  0.30489127  0.03589942     0.97500
C77         C  0.66628987  0.29567192  0.15007369     1.04900
O78         O  0.64640610  0.29966304  0.05258732    -1.12300
O79         O  0.61526801  0.27257276  0.04870500    -0.74700
O80         O  0.64024832  0.26113750  0.08167868    -0.78200
O81         O  0.68350166  0.31816531  0.05537689    -0.78900
C82         C  0.62344444  0.26001293  0.07093327     0.96400
O83         O  0.65390940  0.26976594  0.98866117    -0.76800
O84         O  0.61060609  0.30915459  0.08725174    -0.82000
C85         C  0.63605413  0.33741763  0.99449825     0.99000
C86         C  0.61474851  0.32455601  0.10486896     1.04900
O87         O  0.65178479  0.33609333  0.01301442    -0.77700
C88         C  0.64364691  0.27691706  0.95806680     1.03200
Fe89       Fe  0.51201852  0.42587513  0.72653612     1.65800
Fe90       Fe  0.53443206  0.38993188  0.77190397     1.73200
Fe91       Fe  0.55714940  0.41920082  0.70025708     1.54400
O92         O  0.54205226  0.42559508  0.64089345    -0.81400
O93         O  0.55741589  0.39856389  0.80660867    -0.79700
O94         O  0.51231506  0.42106570  0.65779012    -0.83900
O95         O  0.52534685  0.45056664  0.71770850    -0.78800
O96         O  0.56147058  0.39323065  0.67356283    -0.80500
O97         O  0.51905001  0.40317699  0.82218594    -0.83300
C98         C  0.54152594  0.45656712  0.72356061     0.97500
C99         C  0.52528153  0.42311551  0.62921019     1.04900
O100        O  0.53473446  0.41163995  0.73306426    -1.12300
O101        O  0.51140441  0.37904050  0.73990888    -0.71500
O102        O  0.49417281  0.40397441  0.73360331    -0.78200
O103        O  0.55541122  0.44602165  0.72470737    -0.78900
C104        C  0.49612293  0.38672267  0.73177832     0.96400
O105        O  0.51082971  0.43084483  0.79562761    -0.76800
O106        O  0.55016392  0.37439141  0.72706389    -0.82000
C107        C  0.57254985  0.40555098  0.79384976     0.99000
C108        C  0.55911320  0.37729442  0.69032698     1.04900
O109        O  0.57486490  0.41292287  0.75466683    -0.77700
C110        C  0.51276335  0.41934832  0.82793475     1.03200
Fe111      Fe  0.51354639  0.61221666  0.80872965     1.65800
Fe112      Fe  0.53667412  0.65119569  0.78273485     1.73200
Fe113      Fe  0.55900435  0.61662942  0.83730428     1.54400
O114        O  0.54540124  0.61225881  0.89839032    -0.81400
O115        O  0.56353143  0.64828449  0.75934110    -0.79700
O116        O  0.51655456  0.60538842  0.87677307    -0.83900
O117        O  0.52647783  0.58884405  0.78691385    -0.78800
O118        O  0.56757012  0.64238228  0.86148110    -0.80500
O119        O  0.52773536  0.64095366  0.72089282    -0.83300
C120        C  0.54164615  0.58125177  0.79620268     0.97500
C121        C  0.52890179  0.60756846  0.90713537     1.04900
O122        O  0.53632895  0.62658282  0.80956706    -1.12300
O123        O  0.50995616  0.65849151  0.80196146    -0.74700
O124        O  0.49706910  0.63333797  0.83025501    -0.78200
O125        O  0.55446890  0.58947742  0.81743591    -0.78900
C126        C  0.49671029  0.65033400  0.82168066     0.96400
O127        O  0.50844313  0.61828216  0.74078442    -0.76800
O128        O  0.54580961  0.66263053  0.84300913    -0.82000
C129        C  0.57545338  0.63555993  0.75629870     0.99000
C130        C  0.56041824  0.65832557  0.86415650     1.04900
O131        O  0.57403735  0.62047609  0.77778548    -0.77700
C132        C  0.51593031  0.62867471  0.71117523     1.03200
Fe133      Fe  0.49507011  0.42644913  0.22671714     1.65800
Fe134      Fe  0.47283617  0.38674028  0.24933879     1.73200
Fe135      Fe  0.44946755  0.42161302  0.20013134     1.54400
O136        O  0.45319157  0.44848542  0.22414456    -0.81400
O137        O  0.46489916  0.37641298  0.18729809    -0.79700
O138        O  0.48180989  0.44920236  0.25081414    -0.83900
O139        O  0.49148249  0.43449654  0.15937557    -0.78800
O140        O  0.43508233  0.41592063  0.25948978    -0.80500
O141        O  0.49977039  0.38081396  0.23169428    -0.83300
C142        C  0.47866181  0.43309278  0.12984736     0.97500
C143        C  0.46637026  0.45671939  0.24404851     1.04900
O144        O  0.47256533  0.41175976  0.22527161    -1.12300
O145        O  0.48081959  0.39634117  0.31238503    -0.74700
O146        O  0.50026112  0.41920316  0.29432418    -0.78200
O147        O  0.46236325  0.42798399  0.13937678    -0.78900
C148        C  0.49263206  0.40848506  0.32319031     0.96400
O149        O  0.51206458  0.40604929  0.20252656    -0.76800
O150        O  0.44566102  0.38763769  0.27080986    -0.82000
C151        C  0.44998172  0.38041269  0.16728976     0.99000
C152        C  0.43366463  0.40005831  0.27689915     1.04900
O153        O  0.44202836  0.39594575  0.17230197    -0.77700
C154        C  0.51275211  0.38911005  0.21151238     1.03200
Fe155      Fe  0.49556844  0.61368409  0.30920165     1.65800
Fe156      Fe  0.47314468  0.65181683  0.27223883     1.73200
Fe157      Fe  0.44990215  0.61988163  0.33694069     1.54400
O158        O  0.45223443  0.59269301  0.31531982    -0.81400
O159        O  0.45987288  0.66631399  0.32314414    -0.79700
O160        O  0.48226482  0.58887048  0.30544747    -0.83900
O161        O  0.49427942  0.61351835  0.37905923    -0.78800
O162        O  0.43333382  0.62465796  0.28018613    -0.80500
O163        O  0.49751762  0.66110250  0.30062149    -0.83300
C164        C  0.48123336  0.61351420  0.40792866     0.97500
C165        C  0.46605612  0.58261547  0.30700555     1.04900
O166        O  0.47278405  0.62843704  0.30609715    -1.12300
O167        O  0.48617821  0.63986064  0.21676363    -0.74700
O168        O  0.49841241  0.61313690  0.23931891    -0.78200
O169        O  0.46426830  0.61451472  0.39711558    -0.78900
C170        C  0.49439131  0.62479232  0.20866063     0.96400
O171        O  0.51336531  0.63563925  0.31379706    -0.76800
O172        O  0.44889284  0.64563655  0.23989021    -0.82000
C173        C  0.44853512  0.66217325  0.35445488     0.99000
C174        C  0.43513294  0.63519479  0.24579667     1.04900
O175        O  0.44370567  0.64573838  0.36289945    -0.77700
C176        C  0.51214737  0.65293548  0.31229127     1.03200
Fe177      Fe  0.34815111  0.76142081  0.98310169     1.65800
Fe178      Fe  0.38722062  0.73946997  0.01345328     1.73200
Fe179      Fe  0.35360019  0.71575032  0.95942293     1.54400
O180        O  0.32622801  0.72015821  0.97867756    -0.81400
O181        O  0.39954908  0.72999548  0.95449909    -0.79700
O182        O  0.32545036  0.74831196  0.00824754    -0.83900
O183        O  0.34065736  0.75661181  0.91614117    -0.78800
O184        O  0.35745978  0.70178559  0.02042263    -0.80500
O185        O  0.39370710  0.76609756  0.99334582    -0.83300
C186        C  0.34368300  0.74412672  0.88659812     0.97500
C187        C  0.31802005  0.73293895  0.00018114     1.04900
O188        O  0.36293471  0.73896414  0.98511319    -1.12300
O189        O  0.37582751  0.74882131  0.07359332    -0.74700
O190        O  0.35434854  0.76868151  0.04973274    -0.78200
O191        O  0.34928982  0.72810079  0.89671572    -0.78900
C192        C  0.36400280  0.76133818  0.08101809     0.96400
O193        O  0.36910974  0.77755103  0.95847442    -0.76800
O194        O  0.38516966  0.71277003  0.03794797    -0.82000
C195        C  0.39558231  0.71517447  0.93376731     0.99000
C196        C  0.37266660  0.70066839  0.04149914     1.04900
O197        O  0.37977620  0.70763674  0.93664820    -0.77700
C198        C  0.38580619  0.77860403  0.97041199     1.03200
Fe199      Fe  0.16288289  0.76242908  0.06808991     1.65800
Fe200      Fe  0.12608602  0.74184501  0.02100940     1.73200
Fe201      Fe  0.15534893  0.71719526  0.08801004     1.54400
O202        O  0.18178914  0.71902832  0.06181963    -0.81400
O203        O  0.11023459  0.72636142  0.06608649    -0.79700
O204        O  0.18734602  0.74836543  0.07675209    -0.83900
O205        O  0.15741576  0.76095972  0.13605192    -0.78800
O206        O  0.14843389  0.70076872  0.03173857    -0.80500
O207        O  0.11626840  0.76463989  0.05451103    -0.83300
C208        C  0.15941399  0.74745618  0.16292863     0.97500
C209        C  0.19278942  0.73240869  0.06609951     1.04900
O210        O  0.14801282  0.74029455  0.05876501    -1.12300
O211        O  0.14015004  0.75725051  0.97195962    -0.74700
O212        O  0.16812082  0.76430390  0.99969224    -0.78200
O213        O  0.16233987  0.73101461  0.14916306    -0.78900
C214        C  0.15662384  0.76303217  0.96714314     0.96400
O215        O  0.14163632  0.78116814  0.06138764    -0.76800
O216        O  0.13317931  0.71912052  0.98371219    -0.82000
C217        C  0.11346682  0.71641498  0.10105989     0.99000
C218        C  0.14036921  0.70381968  0.99376366     1.04900
O219        O  0.12958318  0.71282728  0.11522406    -0.77700
C220        C  0.12431438  0.77972239  0.06186662     1.03200
Fe221      Fe  0.34910664  0.77887479  0.48424674     1.65800
Fe222      Fe  0.38619671  0.80109880  0.52479357     1.73200
Fe223      Fe  0.35511901  0.82422707  0.45817983     1.54400
O224        O  0.34795355  0.80967623  0.39892875    -0.81400
O225        O  0.37873482  0.82416371  0.56073558    -0.79700
O226        O  0.35204207  0.77988247  0.41527250    -0.83900
O227        O  0.32412732  0.79222642  0.48051177    -0.78800
O228        O  0.38060483  0.82881411  0.42847347    -0.80500
O229        O  0.37415932  0.78579482  0.57685244    -0.83300
C230        C  0.31801755  0.80844795  0.48469696     0.97500
C231        C  0.35004902  0.79294759  0.38704077     1.04900
O232        O  0.36342318  0.80160733  0.48947354    -1.12300
O233        O  0.39630062  0.77811811  0.49152485    -0.74700
O234        O  0.37124429  0.76098116  0.48615186    -0.78200
O235        O  0.32850762  0.82237677  0.48429690    -0.78900
C236        C  0.38849168  0.76294921  0.48318772     0.96400
O237        O  0.34616183  0.77682013  0.55367875    -0.76800
O238        O  0.40063815  0.81627306  0.47721080    -0.82000
C239        C  0.37057765  0.83899466  0.55049097     0.99000
C240        C  0.39693427  0.82539844  0.44132510     1.04900
O241        O  0.36195489  0.84138265  0.51298946    -0.77700
C242        C  0.35840535  0.77875008  0.58426799     1.03200
Fe243      Fe  0.16298316  0.77828598  0.56578418     1.65800
Fe244      Fe  0.12259598  0.79983488  0.54213386     1.73200
Fe245      Fe  0.15680818  0.82353619  0.59550870     1.54400
O246        O  0.16313442  0.81003796  0.65549863    -0.81400
O247        O  0.12438979  0.82620194  0.51656683    -0.79700
O248        O  0.16992615  0.78119802  0.63398641    -0.83900
O249        O  0.18588228  0.79242782  0.54485148    -0.78800
O250        O  0.13111174  0.83055403  0.62337649    -0.80500
O251        O  0.13231979  0.79045645  0.48031963    -0.83300
C252        C  0.19267366  0.80815787  0.55203639     0.97500
C253        C  0.16837297  0.79373709  0.66418179     1.04900
O254        O  0.14753237  0.80047337  0.56792083    -1.12300
O255        O  0.11654816  0.77354884  0.56404369    -0.74700
O256        O  0.14255996  0.76033055  0.58613335    -0.78200
O257        O  0.18384721  0.82081785  0.57228375    -0.78900
C258        C  0.12528566  0.76014424  0.58104198     0.96400
O259        O  0.15713414  0.77356467  0.49742298    -0.76800
O260        O  0.11095359  0.80919844  0.60162112    -0.82000
C261        C  0.13651381  0.83869282  0.51403412     0.99000
C262        C  0.11521876  0.82316924  0.62513693     1.04900
O263        O  0.15126911  0.83850427  0.53712947    -0.77700
C264        C  0.14544566  0.77986596  0.46909275     1.03200
Fe265      Fe  0.01299294  0.42128727  0.80832295     1.65800
Fe266      Fe  0.03697284  0.38460062  0.77136183     1.73200
Fe267      Fe  0.05796495  0.41647100  0.83898168     1.54400
O268        O  0.05620097  0.44259357  0.80974259    -0.81400
O269        O  0.05241072  0.37084378  0.81996286    -0.79700
O270        O  0.02589219  0.44651639  0.81164954    -0.83900
O271        O  0.01284455  0.41906860  0.87727849    -0.78800
O272        O  0.07628362  0.40883038  0.78722288    -0.80500
O273        O  0.01412493  0.37422708  0.80402108    -0.83300
C274        C  0.02540340  0.42223317  0.90621701     0.97500
C275        C  0.04207538  0.45282692  0.80737016     1.04900
O276        O  0.03615905  0.40749181  0.80588453    -1.12300
O277        O  0.02165666  0.39576143  0.71843994    -0.74700
O278        O  0.01187274  0.42373794  0.73917437    -0.78200
O279        O  0.04224595  0.42458525  0.89554762    -0.78900
C280        C  0.01444441  0.41128885  0.70961915     0.96400
O281        O  0.99583192  0.39858765  0.80540388    -0.76800
O282        O  0.06012281  0.39260085  0.73611777    -0.82000
C283        C  0.06037326  0.37493908  0.85732632     0.99000
C284        C  0.07481239  0.40042216  0.74913218     1.04900
O285        O  0.06213665  0.39139544  0.87135677    -0.77700
C286        C  0.99850823  0.38150474  0.80976596     1.03200
Fe287      Fe  0.01435038  0.61017956  0.73896832     1.65800
Fe288      Fe  0.03668648  0.64962938  0.76691735     1.73200
Fe289      Fe  0.05996425  0.61572282  0.71167666     1.54400
O290        O  0.05627340  0.58844575  0.73280435    -0.81400
O291        O  0.04618415  0.66193489  0.70793849    -0.79700
O292        O  0.02767288  0.58671584  0.75951648    -0.83900
O293        O  0.01757223  0.60373061  0.67105982    -0.78800
O294        O  0.07525560  0.62057301  0.77071236    -0.80500
O295        O  0.01020473  0.65639236  0.74659407    -0.83300
C296        C  0.03001598  0.60592333  0.64101663     0.97500
C297        C  0.04324993  0.57959989  0.75177089     1.04900
O298        O  0.03695789  0.62509342  0.73912402    -1.12300
O299        O  0.02761445  0.63859561  0.82788982    -0.74700
O300        O  0.00892235  0.61557153  0.80698087    -0.78200
O301        O  0.04648375  0.61059228  0.65033028    -0.78900
C302        C  0.01622952  0.62585077  0.83706784     0.96400
O303        O  0.99743016  0.63122031  0.71797745    -0.76800
O304        O  0.06330311  0.64758005  0.79090614    -0.82000
C305        C  0.06059496  0.65771879  0.68572996     0.99000
C306        C  0.07601980  0.63568210  0.79247322     1.04900
O307        O  0.06756720  0.64164602  0.68668836    -0.77700
C308        C  0.99713898  0.64825318  0.72626382     1.03200
Fe309      Fe  0.99579437  0.42475693  0.31076663     1.65800
Fe310      Fe  0.97360096  0.38551649  0.28003465     1.73200
Fe311      Fe  0.94988224  0.41947302  0.33629037     1.54400
O312        O  0.96317222  0.42505659  0.39737673    -0.81400
O313        O  0.94791246  0.38892907  0.25023638    -0.79700
O314        O  0.99304895  0.42835690  0.37974620    -0.83900
O315        O  0.98275115  0.44888945  0.29726921    -0.78800
O316        O  0.94259167  0.39389764  0.36290919    -0.80500
O317        O  0.98504530  0.39616603  0.22147257    -0.83300
C318        C  0.96696101  0.45593068  0.30117326     0.97500
C319        C  0.97992683  0.42754535  0.40830091     1.04900
O320        O  0.97306360  0.40999373  0.30879355    -1.12300
O321        O  0.99916686  0.37778634  0.30523633    -0.74700
O322        O  0.01322719  0.40354267  0.32519139    -0.78200
O323        O  0.95309746  0.44670170  0.31420543    -0.78900
C324        C  0.01297643  0.38632482  0.32086202     0.96400
O325        O  0.00034395  0.42167511  0.24178726    -0.76800
O326        O  0.96232421  0.37298756  0.33625795    -0.82000
C327        C  0.93486489  0.40053333  0.25105018     0.99000
C328        C  0.94902480  0.37764895  0.36172140     1.04900
O329        O  0.93448736  0.41418678  0.27813591    -0.77700
C330        C  0.99505608  0.40998301  0.21228741     1.03200
Fe331      Fe  0.99859944  0.61373601  0.23936343     1.65800
Fe332      Fe  0.97574675  0.65237749  0.27379924     1.73200
Fe333      Fe  0.95288353  0.61929593  0.21181867     1.54400
O334        O  0.96687518  0.61369231  0.15145374    -0.81400
O335        O  0.95080131  0.64724819  0.30530403    -0.79700
O336        O  0.99662865  0.61080266  0.17002690    -0.83900
O337        O  0.98541869  0.58913640  0.25052929    -0.78800
O338        O  0.94600766  0.64479383  0.18507492    -0.80500
O339        O  0.98823149  0.64105920  0.33133604    -0.83300
C340        C  0.96931448  0.58267449  0.24694777     0.97500
C341        C  0.98369498  0.61123479  0.14100625     1.04900
O342        O  0.97569572  0.62845476  0.24175800    -1.12300
O343        O  0.00057496  0.66112864  0.24581282    -0.74700
O344        O  0.01570718  0.63570257  0.22734747    -0.78200
O345        O  0.95574250  0.59231664  0.23415089    -0.78900
C346        C  0.01466072  0.65299897  0.23017848     0.96400
O347        O  0.00284916  0.61560833  0.30848456    -0.76800
O348        O  0.96291047  0.66609309  0.22039203    -0.82000
C349        C  0.93740101  0.63623764  0.30026714     0.99000
C350        C  0.95100738  0.66135539  0.19079452     1.04900
O351        O  0.93659676  0.62430053  0.26861285    -0.77700
C352        C  0.99789256  0.62684172  0.33924655     1.03200
Fe353      Fe  0.51421893  0.10960181  0.22464249     1.65800
Fe354      Fe  0.53694591  0.14876892  0.25021405     1.73200
Fe355      Fe  0.56026622  0.11371261  0.20152705     1.54400
O356        O  0.55524081  0.08689469  0.22471649    -0.81400
O357        O  0.54640804  0.15938819  0.18946113    -0.79700
O358        O  0.52657194  0.08674374  0.25149424    -0.83900
O359        O  0.51870720  0.10098725  0.15819978    -0.78800
O360        O  0.57455812  0.11901191  0.26190018    -0.80500
O361        O  0.51047143  0.15527546  0.22990775    -0.83300
C362        C  0.53154987  0.10286496  0.12899469     0.97500
C363        C  0.54192566  0.07897122  0.24500862     1.04900
O364        O  0.53708397  0.12388459  0.22544614    -1.12300
O365        O  0.52762903  0.13896114  0.31203864    -0.74700
O366        O  0.50738397  0.11730410  0.29086355    -0.78200
O367        O  0.54776537  0.10806580  0.13928684    -0.78900
C368        C  0.51494102  0.12747768  0.32094788     0.96400
O369        O  0.49856270  0.13037248  0.19774288    -0.76800
O370        O  0.56363055  0.14711642  0.27410356    -0.82000
C371        C  0.56157979  0.15515056  0.17076045     0.99000
C372        C  0.57592113  0.13494211  0.27935263     1.04900
O373        O  0.56891080  0.13930519  0.17540050    -0.77700
C374        C  0.49786289  0.14723820  0.20774337     1.03200
Fe375      Fe  0.51483447  0.92200309  0.31118697     1.65800
Fe376      Fe  0.53673653  0.88445428  0.26981262     1.73200
Fe377      Fe  0.56084989  0.91594508  0.33407185     1.54400
O378        O  0.55830340  0.94292005  0.31084699    -0.81400
O379        O  0.55076585  0.86989647  0.31899101    -0.79700
O380        O  0.52802742  0.94685647  0.30928144    -0.83900
O381        O  0.51713857  0.92087831  0.38077182    -0.78800
O382        O  0.57695888  0.91050188  0.27703374    -0.80500
O383        O  0.51284097  0.87484627  0.29996101    -0.83300
C384        C  0.53065913  0.92186432  0.40815423     0.97500
C385        C  0.54421832  0.95308087  0.30681901     1.04900
O386        O  0.53759545  0.90747066  0.30488883    -1.12300
O387        O  0.52283550  0.89696583  0.21633770    -0.74700
O388        O  0.51122368  0.92362820  0.24166651    -0.78200
O389        O  0.54742213  0.92201483  0.39536517    -0.78900
C390        C  0.51471284  0.91223777  0.20993039     0.96400
O391        O  0.49693665  0.90014386  0.31418551    -0.76800
O392        O  0.56054107  0.89062843  0.23544431    -0.82000
C393        C  0.56197108  0.87378797  0.35085743     0.99000
C394        C  0.57472811  0.90038716  0.24205151     1.04900
O395        O  0.56682410  0.89012114  0.36045968    -0.77700
C396        C  0.49817476  0.88287978  0.31175355     1.03200
Fe397      Fe  0.49959477  0.11318852  0.72620052     1.65800
Fe398      Fe  0.47725609  0.15039279  0.76736551     1.73200
Fe399      Fe  0.45394651  0.11933086  0.70078498     1.54400
O400        O  0.46805283  0.11287398  0.64037969    -0.81400
O401        O  0.45426169  0.14305935  0.80306551    -0.79700
O402        O  0.49811253  0.11471202  0.65664481    -0.83900
O403        O  0.48631943  0.08826910  0.72654210    -0.78800
O404        O  0.44869523  0.14493873  0.67322369    -0.80500
O405        O  0.49233749  0.13840457  0.81995762    -0.83300
C406        C  0.47002593  0.08226994  0.72944802     0.97500
C407        C  0.48490775  0.11356102  0.62840365     1.04900
O408        O  0.47676790  0.12759896  0.73163368    -1.12300
O409        O  0.49999282  0.16036143  0.73389213    -0.74700
O410        O  0.51714612  0.13546654  0.72442402    -0.78200
O411        O  0.45605314  0.09257847  0.72537318    -0.78900
C412        C  0.51487423  0.15266192  0.72260939     0.96400
O413        O  0.50249566  0.11106283  0.79581445    -0.76800
O414        O  0.46200906  0.16506062  0.72045254    -0.82000
C415        C  0.43959750  0.13447528  0.79356066     0.99000
C416        C  0.45203113  0.16126331  0.68613943     1.04900
O417        O  0.43718888  0.12552162  0.75658979    -0.77700
C418        C  0.49969540  0.12280667  0.82710805     1.03200
Fe419      Fe  0.49843421  0.92573754  0.81133563     1.65800
Fe420      Fe  0.47538234  0.88691808  0.78315811     1.73200
Fe421      Fe  0.45250534  0.92158300  0.83642030     1.54400
O422        O  0.46534841  0.92684507  0.89838895    -0.81400
O423        O  0.44881443  0.88952120  0.75803624    -0.79700
O424        O  0.49470640  0.93250944  0.87932172    -0.83900
O425        O  0.48596561  0.94919623  0.78939106    -0.78800
O426        O  0.44410909  0.89582653  0.86186366    -0.80500
O427        O  0.48511354  0.89720395  0.72237774    -0.83300
C428        C  0.47054927  0.95679910  0.79567340     0.97500
C429        C  0.48181200  0.93119088  0.90858951     1.04900
O430        O  0.47549854  0.91151855  0.81034008    -1.12300
O431        O  0.50167513  0.87958422  0.80408578    -0.74700
O432        O  0.51455082  0.90456494  0.83338852    -0.78200
O433        O  0.45711285  0.94858587  0.81454753    -0.78900
C434        C  0.51477760  0.88761612  0.82449688     0.96400
O435        O  0.50433522  0.91978310  0.74344206    -0.76800
O436        O  0.46570551  0.87548199  0.84238657    -0.82000
C437        C  0.43673172  0.90204723  0.75491878     0.99000
C438        C  0.45126634  0.87983536  0.86412823     1.04900
O439        O  0.43786725  0.91711701  0.77654864    -0.77700
C440        C  0.49714834  0.90934969  0.71338385     1.03200
Fe441      Fe  0.84969518  0.77674932  0.06487963     1.65800
Fe442      Fe  0.88602485  0.79828855  0.01831595     1.73200
Fe443      Fe  0.85688124  0.82176571  0.08853840     1.54400
O444        O  0.83035490  0.82008021  0.06227600    -0.81400
O445        O  0.90178210  0.81393357  0.06330500    -0.79700
O446        O  0.82519143  0.79049563  0.07450704    -0.83900
O447        O  0.85506364  0.77763714  0.13299558    -0.78800
O448        O  0.86367788  0.83877337  0.03453919    -0.80500
O449        O  0.89625948  0.77507253  0.05064210    -0.83300
C450        C  0.85302451  0.79086328  0.16084928     0.97500
C451        C  0.81952166  0.80650096  0.06519963     1.04900
O452        O  0.86432801  0.79913303  0.05705737    -1.12300
O453        O  0.87203748  0.78321734  0.96844182    -0.74700
O454        O  0.84431161  0.77550707  0.99631000    -0.78200
O455        O  0.85004903  0.80737827  0.14826698    -0.78900
C456        C  0.85561469  0.77732070  0.96351272     0.96400
O457        O  0.87112649  0.75815213  0.05738881    -0.76800
O458        O  0.87840292  0.82148056  0.98294454    -0.82000
C459        C  0.89879807  0.82363144  0.09889086     0.99000
C460        C  0.87154264  0.83659305  0.99613147     1.04900
O461        O  0.88280840  0.82619438  0.11548110    -0.77700
C462        C  0.88842496  0.75987586  0.05890018     1.03200
Fe463      Fe  0.66545724  0.77752733  0.97770126     1.65800
Fe464      Fe  0.62563888  0.79860176  0.00780772     1.73200
Fe465      Fe  0.65853620  0.82304917  0.95330994     1.54400
O466        O  0.68607132  0.81987756  0.97195390    -0.81400
O467        O  0.61320453  0.80764976  0.94901484    -0.79700
O468        O  0.68831899  0.79145064  0.99897616    -0.83900
O469        O  0.67163996  0.78166503  0.90852024    -0.78800
O470        O  0.65449014  0.83705912  0.01373288    -0.80500
O471        O  0.61945743  0.77202949  0.98739334    -0.83300
C472        C  0.66824597  0.79454139  0.88005490     0.97500
C473        C  0.69498680  0.80721257  0.99188186     1.04900
O474        O  0.64998644  0.79961177  0.97953191    -1.12300
O475        O  0.63698031  0.78968750  0.06830973    -0.74700
O476        O  0.66046742  0.77168405  0.04670760    -0.78200
O477        O  0.66274957  0.81042486  0.89161962    -0.78900
C478        C  0.64997401  0.77857480  0.07728246     0.96400
O479        O  0.64470853  0.76014244  0.95673383    -0.76800
O480        O  0.62721972  0.82523458  0.03231549    -0.82000
C481        C  0.61663446  0.82256443  0.92833714     0.99000
C482        C  0.63944712  0.83760351  0.03555591     1.04900
O483        O  0.63223612  0.83048090  0.93058967    -0.77700
C484        C  0.62774718  0.75929373  0.96624967     1.03200
Fe485      Fe  0.84963398  0.76080571  0.56531831     1.65800
Fe486      Fe  0.88840212  0.73741305  0.53580683     1.73200
Fe487      Fe  0.85355459  0.71468997  0.58967972     1.54400
O488        O  0.84840871  0.72741002  0.65159641    -0.81400
O489        O  0.88439301  0.71188770  0.50560242    -0.79700
O490        O  0.84268149  0.75675786  0.63320130    -0.83900
O491        O  0.82590181  0.74840494  0.54310121    -0.78800
O492        O  0.87896468  0.70575872  0.61508402    -0.80500
O493        O  0.87867861  0.74910154  0.47674403    -0.83300
C494        C  0.81833532  0.73295290  0.54953222     0.97500
C495        C  0.84372955  0.74371755  0.66206348     1.04900
O496        O  0.86380210  0.73768223  0.56360649    -1.12300
O497        O  0.89642417  0.76260991  0.56217009    -0.74700
O498        O  0.87128307  0.77677589  0.58728122    -0.78200
O499        O  0.82662795  0.71958331  0.56827953    -0.78900
C500        C  0.88851494  0.77602336  0.58160552     0.96400
O501        O  0.85538107  0.76733087  0.49779237    -0.76800
O502        O  0.90023893  0.72583107  0.59242264    -0.82000
C503        C  0.87189195  0.69969245  0.50424702     0.99000
C504        C  0.89534092  0.71197985  0.61548928     1.04900
O505        O  0.85782233  0.69998683  0.52996514    -0.77700
C506        C  0.86645248  0.76100572  0.46801973     1.03200
Fe507      Fe  0.66175912  0.75803206  0.48097628     1.65800
Fe508      Fe  0.62449398  0.73657306  0.51979550     1.73200
Fe509      Fe  0.65596134  0.71316347  0.45584262     1.54400
O510        O  0.66374219  0.72796404  0.39653610    -0.81400
O511        O  0.63264021  0.71480352  0.55954593    -0.79700
O512        O  0.65842670  0.75773712  0.41187535    -0.83900
O513        O  0.68678267  0.74514941  0.47446658    -0.78800
O514        O  0.63088830  0.70822527  0.42480749    -0.80500
O515        O  0.63556716  0.75425268  0.56915076    -0.83300
C516        C  0.69270997  0.72921526  0.48308139     0.97500
C517        C  0.66134018  0.74467762  0.38397229     1.04900
O518        O  0.64733233  0.73564175  0.48540634    -1.12300
O519        O  0.61465835  0.75818333  0.48150663    -0.74700
O520        O  0.63949952  0.77563677  0.48611646    -0.78200
O521        O  0.68210859  0.71538441  0.48487093    -0.78900
C522        C  0.62253117  0.77358855  0.47776066     0.96400
O523        O  0.66511204  0.75828887  0.55042034    -0.76800
O524        O  0.61061959  0.71935583  0.47517502    -0.82000
C525        C  0.63995138  0.69950640  0.54922990     0.99000
C526        C  0.61453398  0.71036077  0.43917577     1.04900
O527        O  0.64809938  0.69648710  0.51116387    -0.77700
C528        C  0.65198105  0.75903783  0.57890657     1.03200
Fe529      Fe  0.35031434  0.27643679  0.55205337     1.65800
Fe530      Fe  0.38866335  0.29918783  0.51589432     1.73200
Fe531      Fe  0.35602392  0.32221597  0.57900537     1.54400
O532        O  0.32877998  0.31933761  0.55637405    -0.81400
O533        O  0.40275259  0.31223961  0.56789181    -0.79700
O534        O  0.32563507  0.28950838  0.54198477    -0.83900
O535        O  0.34805146  0.27859598  0.62130195    -0.78800
O536        O  0.36105888  0.33854206  0.52196686    -0.80500
O537        O  0.39775699  0.27500349  0.54481245    -0.83300
C538        C  0.34857780  0.29151988  0.65032661     0.97500
C539        C  0.31910259  0.30558398  0.54445244     1.04900
O540        O  0.36495854  0.29934678  0.54887165    -1.12300
O541        O  0.37716907  0.28619200  0.45982295    -0.74700
O542        O  0.35150681  0.27202592  0.48296285    -0.78200
O543        O  0.35053019  0.30834812  0.63967231    -0.78900
C544        C  0.36283054  0.27671535  0.45217752     0.96400
O545        O  0.37249963  0.25947050  0.56298574    -0.76800
O546        O  0.38281821  0.32343749  0.48311922    -0.82000
C547        C  0.39830959  0.32350346  0.59911701     0.99000
C548        C  0.37208636  0.33698839  0.48839597     1.04900
O549        O  0.38180208  0.32858319  0.60597894    -0.77700
C550        C  0.38979335  0.26089805  0.56047807     1.03200
Fe551      Fe  0.16001607  0.27555424  0.48366867     1.65800
Fe552      Fe  0.12179296  0.29896048  0.51526726     1.73200
Fe553      Fe  0.15605548  0.32116834  0.45559898     1.54400
O554        O  0.18208101  0.31858838  0.48523463    -0.81400
O555        O  0.10945024  0.31347364  0.46329513    -0.79700
O556        O  0.18506735  0.28831622  0.49099573    -0.83900
O557        O  0.16192715  0.27683409  0.41469161    -0.78800
O558        O  0.14856332  0.33828968  0.50933589    -0.80500
O559        O  0.11234357  0.27545395  0.48272016    -0.83300
C560        C  0.16446304  0.28980538  0.38656750     0.97500
C561        C  0.19174943  0.30437766  0.49263308     1.04900
O562        O  0.14596881  0.29868556  0.48501335    -1.12300
O563        O  0.13150438  0.28448011  0.57114379    -0.74700
O564        O  0.15889182  0.27252032  0.55286554    -0.78200
O565        O  0.16435115  0.30671317  0.39763074    -0.78900
C566        C  0.14622171  0.27600196  0.58128574     0.96400
O567        O  0.13753036  0.25854607  0.47536778    -0.76800
O568        O  0.12803533  0.32264325  0.55096458    -0.82000
C569        C  0.11474048  0.32342694  0.43019988     0.99000
C570        C  0.13789978  0.33672913  0.54359461     1.04900
O571        O  0.13153737  0.32700785  0.42219840    -0.77700
C572        C  0.12026700  0.26050988  0.47264745     1.03200
Fe573      Fe  0.35019806  0.25994373  0.05089039     1.65800
Fe574      Fe  0.38924581  0.23735660  0.02218341     1.73200
Fe575      Fe  0.35524604  0.21448549  0.07797919     1.54400
O576        O  0.35105827  0.22781306  0.13949002    -0.81400
O577        O  0.38655037  0.21080114  0.99834078    -0.79700
O578        O  0.34376664  0.25657654  0.11878715    -0.83900
O579        O  0.32670604  0.24686064  0.02953238    -0.78800
O580        O  0.38127869  0.20636284  0.10165704    -0.80500
O581        O  0.37850133  0.24662709  0.96128938    -0.83300
C582        C  0.31925338  0.23155304  0.03841005     0.97500
C583        C  0.34643533  0.24423707  0.14879872     1.04900
O584        O  0.36479522  0.23731837  0.05027885    -1.12300
O585        O  0.39642032  0.26369077  0.04223016    -0.74700
O586        O  0.37143080  0.27643365  0.07210498    -0.78200
O587        O  0.32781185  0.21869616  0.05869252    -0.78900
C588        C  0.38840412  0.27671496  0.06292353     0.96400
O589        O  0.35589115  0.26562049  0.98334338    -0.76800
O590        O  0.40128037  0.22809375  0.08124107    -0.82000
C591        C  0.37414918  0.19856003  0.99628387     0.99000
C592        C  0.39720144  0.21368125  0.10331649     1.04900
O593        O  0.35912877  0.19962025  0.01826942    -0.77700
C594        C  0.36622348  0.25857252  0.95297665     1.03200
Fe595      Fe  0.16180953  0.25911363  0.98378056     1.65800
Fe596      Fe  0.12448859  0.23696113  0.02399116     1.73200
Fe597      Fe  0.15520785  0.21395461  0.95680649     1.54400
O598        O  0.16255625  0.22862933  0.89778072    -0.81400
O599        O  0.13209464  0.21417668  0.06115538    -0.79700
O600        O  0.15926062  0.25847223  0.91499914    -0.83900
O601        O  0.18672303  0.24559277  0.98015868    -0.78800
O602        O  0.12956771  0.20921961  0.92776215    -0.80500
O603        O  0.13643984  0.25281016  0.07505313    -0.83300
C604        C  0.19253602  0.22927858  0.98425873     0.97500
C605        C  0.16120473  0.24551130  0.88648329     1.04900
O606        O  0.14719559  0.23646738  0.98840867    -1.12300
O607        O  0.11469755  0.25952327  0.98895905    -0.74700
O608        O  0.13960867  0.27706636  0.98614751    -0.78200
O609        O  0.18184724  0.21549297  0.98309541    -0.78900
C610        C  0.12242533  0.27482906  0.98171454     0.96400
O611        O  0.16479104  0.26082782  0.05270343    -0.76800
O612        O  0.10970973  0.22096074  0.97820785    -0.82000
C613        C  0.13949822  0.19916015  0.04900727     0.99000
C614        C  0.11328956  0.21160178  0.94258494     1.04900
O615        O  0.14795696  0.19699910  0.01118565    -0.77700
C616        C  0.15241105  0.25923972  0.08286123     1.03200
Fe617      Fe  0.99437887  0.11228963  0.80803504     1.65800
Fe618      Fe  0.97080419  0.15139380  0.78502888     1.73200
Fe619      Fe  0.94888248  0.11619633  0.83774490     1.54400
O620        O  0.95346766  0.08929107  0.81530915    -0.81400
O621        O  0.96190459  0.16197639  0.84584162    -0.79700
O622        O  0.98161441  0.08884025  0.78562493    -0.83900
O623        O  0.99175066  0.10489068  0.87586418    -0.78800
O624        O  0.93344441  0.12076669  0.77907088    -0.80500
O625        O  0.99725000  0.15871173  0.80517335    -0.83300
C626        C  0.97937354  0.10659865  0.90642107     0.97500
C627        C  0.96641639  0.08115539  0.79422617     1.04900
O628        O  0.97143010  0.12650401  0.81014635    -1.12300
O629        O  0.97978161  0.14202444  0.72258625    -0.74700
O630        O  0.99890816  0.11893770  0.74046096    -0.78200
O631        O  0.96283624  0.11117671  0.89793317    -0.78900
C632        C  0.99143237  0.12975443  0.71185273     0.96400
O633        O  0.01102444  0.13337907  0.82960569    -0.76800
O634        O  0.94396091  0.14866456  0.76162738    -0.82000
C635        C  0.94779805  0.15740253  0.86846600     0.99000
C636        C  0.93200503  0.13599601  0.75821696     1.04900
O637        O  0.94040729  0.14156685  0.86507633    -0.77700
C638        C  0.01078550  0.15053715  0.82342155     1.03200
Fe639      Fe  0.99894743  0.92373855  0.73897415     1.65800
Fe640      Fe  0.97603747  0.88835339  0.78608810     1.73200
Fe641      Fe  0.95387498  0.91800064  0.71433791     1.54400
O642        O  0.95581708  0.94452276  0.74017833    -0.81400
O643        O  0.95978005  0.87318934  0.74135309    -0.79700
O644        O  0.98584432  0.94883674  0.73096750    -0.83900
O645        O  0.99786179  0.91876541  0.67014416    -0.78800
O646        O  0.93636455  0.91130368  0.76759570    -0.80500
O647        O  0.99861806  0.87668354  0.75429459    -0.83300
C648        C  0.98473822  0.92158684  0.64242158     0.97500
C649        C  0.96972443  0.95500718  0.73756700     1.04900
O650        O  0.97614300  0.90998683  0.74678167    -1.12300
O651        O  0.99200230  0.90127670  0.83570241    -0.74700
O652        O  0.00087914  0.92860211  0.80801295    -0.78200
O653        O  0.96838709  0.92511133  0.65531206    -0.78900
C654        C  0.99885430  0.91726039  0.84067261     0.96400
O655        O  0.01619305  0.90131216  0.74535929    -0.76800
O656        O  0.95351870  0.89775863  0.82128452    -0.82000
C657        C  0.95146767  0.87629171  0.70377307     0.99000
C658        C  0.93846328  0.90441857  0.80714759     1.04900
O659        O  0.94979061  0.89225494  0.68661462    -0.77700
C660        C  0.01398846  0.88406863  0.74554277     1.03200
Fe661      Fe  0.01168541  0.11065096  0.31129730     1.65800
Fe662      Fe  0.03285174  0.14773591  0.26609749     1.73200
Fe663      Fe  0.05661445  0.11882574  0.33724100     1.54400
O664        O  0.04210072  0.11237633  0.39693639    -0.81400
O665        O  0.05691246  0.14115436  0.23274130    -0.79700
O666        O  0.01216948  0.11500822  0.37996979    -0.83900
O667        O  0.02591004  0.08643854  0.31824391    -0.78800
O668        O  0.06022859  0.14503377  0.36295021    -0.80500
O669        O  0.01907702  0.13345996  0.21479349    -0.83300
C670        C  0.04230514  0.08080694  0.31435564     0.97500
C671        C  0.02524222  0.11389113  0.40845418     1.04900
O672        O  0.03390542  0.12575777  0.30451713    -1.12300
O673        O  0.00882825  0.15731877  0.29548244    -0.74700
O674        O  0.99294100  0.13174520  0.30613822    -0.78200
O675        O  0.05591461  0.09170869  0.31420988    -0.78900
C676        C  0.99402333  0.14905272  0.30501670     0.96400
O677        O  0.01008697  0.10611535  0.24235039    -0.76800
O678        O  0.04668316  0.16406455  0.31318435    -0.82000
C679        C  0.07183554  0.13363880  0.24505656     0.99000
C680        C  0.05633153  0.16106240  0.34874797     1.04900
O681        O  0.07379948  0.12519747  0.28282300    -0.77700
C682        C  0.01242305  0.11738667  0.20974605     1.03200
Fe683      Fe  0.01562013  0.92456944  0.24040961     1.65800
Fe684      Fe  0.03882740  0.88513223  0.26429623     1.73200
Fe685      Fe  0.06144599  0.92060171  0.21042808     1.54400
O686        O  0.04740901  0.92875319  0.15232097    -0.81400
O687        O  0.06298021  0.88999153  0.29878865    -0.79700
O688        O  0.01774372  0.93092717  0.17219811    -0.83900
O689        O  0.02871207  0.94840485  0.25919459    -0.78800
O690        O  0.06829100  0.89660006  0.17610027    -0.80500
O691        O  0.02537961  0.89315279  0.32334516    -0.83300
C692        C  0.04474513  0.95510978  0.25658746     0.97500
C693        C  0.03062565  0.93181924  0.14292260     1.04900
O694        O  0.03868221  0.91013859  0.23844386    -1.12300
O695        O  0.01472318  0.87712899  0.23246775    -0.74700
O696        O  0.99885130  0.90290106  0.22216558    -0.78200
O697        O  0.05827951  0.94633935  0.24005631    -0.78900
C698        C  0.00040825  0.88561585  0.21971453     0.96400
O699        O  0.01101518  0.91958541  0.30872424    -0.76800
O700        O  0.05227323  0.87409274  0.20896614    -0.82000
C701        C  0.07643962  0.90101447  0.29604467     0.99000
C702        C  0.06339722  0.87991572  0.17896105     1.04900
O703        O  0.07789244  0.91330739  0.26542696    -0.77700
C704        C  0.01560876  0.90674139  0.33559897     1.03200
C705        C  0.05505236  0.03464423  0.29429626     0.30000
C706        C  0.06555623  0.01966358  0.27816039    -0.36300
C707        C  0.05690439  0.00230338  0.27973518     0.16000
C708        C  0.03922704  0.00000180  0.29614434     0.21800
C709        C  0.02890708  0.01478750  0.31241554    -0.34400
C710        C  0.03743788  0.03194358  0.31063239     0.15900
O711        O  0.05973921  0.05228592  0.29414438    -0.26400
C712        C  0.04479531  0.06073812  0.31048948     0.05700
C713        C  0.03064143  0.04867241  0.32121667    -0.31300
O714        O  0.03316793  0.98309394  0.29170654    -0.23200
C715        C  0.04706703  0.97417074  0.27233338    -0.03100
C716        C  0.06232692  0.98537101  0.26424893    -0.17600
H717        H  0.07923706  0.02146857  0.26418196     0.20400
H718        H  0.01488935  0.01311088  0.32430269     0.18800
H719        H  0.01701610  0.05185774  0.33399043     0.18700
H720        H  0.07506631  0.98179885  0.24720441     0.14600
C721        C  0.02762613  0.93531124  0.02409951     0.30000
C722        C  0.03407994  0.93331153  0.97905428    -0.36300
C723        C  0.02058902  0.93021879  0.94559336     0.16000
C724        C  0.00206303  0.92909757  0.95590222     0.21800
C725        C  0.99558356  0.93169799  0.00056710    -0.34400
C726        C  0.00903106  0.93486294  0.03388195     0.15900
O727        O  0.03783695  0.93556375  0.06142255    -0.26400
C728        C  0.02557951  0.93544013  0.09528418     0.05700
C729        C  0.00746449  0.93534391  0.08013658    -0.31300
O730        O  0.99201007  0.92443558  0.92028657    -0.23200
C731        C  0.00419903  0.92290229  0.88662585    -0.03100
C732        C  0.02218461  0.92639307  0.90007202    -0.17600
H733        H  0.04862188  0.93315003  0.97105382     0.20400
H734        H  0.98114888  0.93037187  0.00913463     0.18800
H735        H  0.99503530  0.93386287  0.10029024     0.18700
H736        H  0.03460834  0.92547005  0.87972452     0.14600
C737        C  0.99558627  0.91616682  0.44200228     0.30000
C738        C  0.98304777  0.92400624  0.47301629    -0.36300
C739        C  0.98694657  0.92124518  0.51962786     0.16000
C740        C  0.00225314  0.91167440  0.53435964     0.21800
C741        C  0.01454844  0.90363456  0.50350592    -0.34400
C742        C  0.01051319  0.90612871  0.45715968     0.15900
O743        O  0.99514597  0.91752789  0.39694433    -0.26400
C744        C  0.00978682  0.90795516  0.38344611     0.05700
C745        C  0.01976705  0.90045889  0.41936847    -0.31300
O746        O  0.00353671  0.91098472  0.57917822    -0.23200
C747        C  0.98880145  0.92004842  0.59360432    -0.03100
C748        C  0.97783894  0.92669758  0.55819156    -0.17600
H749        H  0.97120740  0.93179018  0.46164439     0.20400
H750        H  0.02649250  0.89601430  0.51489795     0.18800
H751        H  0.03243377  0.89265305  0.41784373     0.18700
H752        H  0.96511653  0.93437232  0.56058601     0.14600
C753        C  0.00907398  0.10751487  0.09366625     0.30000
C754        C  0.01530752  0.10645636  0.04839726    -0.36300
C755        C  0.00166393  0.10441000  0.01503586     0.16000
C756        C  0.98312646  0.10368713  0.02536116     0.21800
C757        C  0.97691157  0.10426117  0.07082053    -0.34400
C758        C  0.99059565  0.10606873  0.10431881     0.15900
O759        O  0.01928134  0.11119418  0.12970068    -0.26400
C760        C  0.00723584  0.11171493  0.16384326     0.05700
C761        C  0.98921362  0.10847558  0.15041564    -0.31300
O762        O  0.97271556  0.10367953  0.98841258    -0.23200
C763        C  0.98479177  0.10407475  0.95418943    -0.03100
C764        C  0.00299018  0.10443145  0.96869844    -0.17600
H765        H  0.02971515  0.10789801  0.03966319     0.20400
H766        H  0.96241544  0.10405926  0.07933612     0.18800
H767        H  0.97685766  0.10907611  0.17110395     0.18700
H768        H  0.01532041  0.10577519  0.94811311     0.14600
C769        C  0.01134246  0.11952776  0.60679919     0.30000
C770        C  0.02496075  0.11290241  0.57720464    -0.36300
C771        C  0.02107392  0.11439480  0.53044768     0.16000
C772        C  0.00472448  0.12154284  0.51417412     0.21800
C773        C  0.99113230  0.12822553  0.54373178    -0.34400
C774        C  0.99520951  0.12711869  0.59040796     0.15900
O775        O  0.01215960  0.11961728  0.65173361    -0.26400
C776        C  0.99652239  0.12762368  0.66406644     0.05700
C777        C  0.98541085  0.13266881  0.62750617    -0.31300
O778        O  0.00405775  0.12185097  0.46928331    -0.23200
C779        C  0.02022265  0.11501534  0.45664385    -0.03100
C780        C  0.03146411  0.11015666  0.49313148    -0.17600
H781        H  0.03777744  0.10723945  0.58976397     0.20400
H782        H  0.97843159  0.13414653  0.53117009     0.18800
H783        H  0.97196490  0.13906748  0.62829249     0.18700
H784        H  0.04525732  0.10455562  0.49223729     0.14600
C785        C  0.97237231  0.03609637  0.75471962     0.30000
C786        C  0.98246881  0.02151123  0.73608010    -0.36300
C787        C  0.97444739  0.00408968  0.73964087     0.16000
C788        C  0.95751647  0.00107707  0.75971113     0.21800
C789        C  0.94730168  0.01578460  0.77819381    -0.34400
C790        C  0.95543148  0.03331884  0.77497296     0.15900
O791        O  0.97796910  0.05325586  0.75764723    -0.26400
C792        C  0.96448471  0.06179130  0.77997523     0.05700
C793        C  0.95001722  0.05008008  0.79155044    -0.31300
O794        O  0.95313916  0.98340198  0.76091232    -0.23200
C795        C  0.96757298  0.97511241  0.74163177    -0.03100
C796        C  0.98115273  0.98736209  0.72773541    -0.17600
H797        H  0.99594402  0.02353502  0.72108538     0.20400
H798        H  0.93419872  0.01364591  0.79503320     0.18800
H799        H  0.93775037  0.05327441  0.81105026     0.18700
H800        H  0.99430392  0.98430793  0.71204977     0.14600
C801        C  0.10187652  0.14342339  0.15573507     0.30000
C802        C  0.10612492  0.14716614  0.10980171    -0.36300
C803        C  0.12010192  0.16009469  0.10235088     0.16000
C804        C  0.12898223  0.16909680  0.13770816     0.21800
C805        C  0.12539535  0.16464519  0.18363591    -0.34400
C806        C  0.11169112  0.15140572  0.19108433     0.15900
O807        O  0.08711385  0.13466658  0.17035811    -0.26400
C808        C  0.08788283  0.13646327  0.21569815     0.05700
C809        C  0.10297397  0.14655887  0.23053078    -0.31300
O810        O  0.13845418  0.18344795  0.12328336    -0.23200
C811        C  0.13619540  0.18314355  0.07802340    -0.03100
C812        C  0.12507731  0.16882564  0.06310392    -0.17600
H813        H  0.09803543  0.14159829  0.08189526     0.20400
H814        H  0.13169581  0.17211217  0.21165836     0.18800
H815        H  0.10560858  0.15173766  0.26473491     0.18700
H816        H  0.11939953  0.16680686  0.02914191     0.14600
C817        C  0.05415223  0.16722278  0.85624600     0.30000
C818        C  0.07314286  0.16629090  0.86500916    -0.36300
C819        C  0.08109441  0.18197241  0.88491485     0.16000
C820        C  0.07098359  0.19735443  0.89633857     0.21800
C821        C  0.05206366  0.19842101  0.88669598    -0.34400
C822        C  0.04417997  0.18288102  0.86594333     0.15900
O823        O  0.04378560  0.15388295  0.83971541    -0.26400
C824        C  0.02699739  0.16118642  0.83801365     0.05700
C825        C  0.02643525  0.17925885  0.85353470    -0.31300
O826        O  0.08096650  0.20994905  0.91745404    -0.23200
C827        C  0.09780582  0.20274166  0.91854638    -0.03100
C828        C  0.09871096  0.18537005  0.89868648    -0.17600
H829        H  0.08109873  0.15409256  0.85750790     0.20400
H830        H  0.04399533  0.21041014  0.89544504     0.18800
H831        H  0.01456193  0.18812735  0.85691545     0.18700
H832        H  0.11045150  0.17626316  0.89666339     0.14600
C833        C  0.24032935  0.23459072  0.98787675     0.30000
C834        C  0.25670822  0.24438987  0.98195575    -0.36300
C835        C  0.27258898  0.23623644  0.99967096     0.16000
C836        C  0.27255276  0.21953106  0.02196918     0.21800
C837        C  0.25603388  0.20952183  0.02745449    -0.34400
C838        C  0.23998096  0.21770781  0.00938220     0.15900
O839        O  0.22388886  0.24037529  0.97597100    -0.26400
C840        C  0.21260816  0.22704784  0.98933580     0.05700
C841        C  0.22182602  0.21242951  0.01016442    -0.31300
O842        O  0.28908877  0.21512990  0.03786654    -0.23200
C843        C  0.29970898  0.22924310  0.02524894    -0.03100
C844        C  0.29008255  0.24266393  0.00131186    -0.17600
H845        H  0.25697343  0.25772849  0.96557817     0.20400
H846        H  0.25565484  0.19650584  0.04536981     0.18800
H847        H  0.21596234  0.20017853  0.02530706     0.18700
H848        H  0.29514549  0.25564527  0.98831397     0.14600
C849        C  0.08426368  0.19220331  0.40764076     0.30000
C850        C  0.10066240  0.19808511  0.42810628    -0.36300
C851        C  0.10185247  0.21685314  0.43810591     0.16000
C852        C  0.08775564  0.22906848  0.42944913     0.21800
C853        C  0.07130577  0.22318080  0.40858525    -0.34400
C854        C  0.07024882  0.20436885  0.39769025     0.15900
O855        O  0.08076247  0.17540006  0.39341999    -0.26400
C856        C  0.06439836  0.17672460  0.37341601     0.05700
C857        C  0.05714423  0.19444591  0.37489190    -0.31300
O858        O  0.09208697  0.24609584  0.44116762    -0.23200
C859        C  0.10923616  0.24469141  0.45703971    -0.03100
C860        C  0.11597417  0.22682444  0.45573943    -0.17600
H861        H  0.11192516  0.18872228  0.43473560     0.20400
H862        H  0.06031466  0.23266138  0.40040265     0.18800
H863        H  0.04436240  0.19934736  0.36029882     0.18700
H864        H  0.12942907  0.22192991  0.46596481     0.14600
C865        C  0.14878836  0.27185961  0.69932324     0.30000
C866        C  0.14620783  0.27738245  0.74459292    -0.36300
C867        C  0.15360187  0.26574806  0.77770966     0.16000
C868        C  0.16263273  0.24955510  0.76739932     0.21800
C869        C  0.16564818  0.24424691  0.72183317    -0.34400
C870        C  0.15847095  0.25609332  0.68848237     0.15900
O871        O  0.14278000  0.28061388  0.66302461    -0.26400
C872        C  0.14893822  0.27050672  0.62851380     0.05700
C873        C  0.15888076  0.25513738  0.64201631    -0.31300
O874        O  0.16701982  0.24011708  0.80439709    -0.23200
C875        C  0.16093721  0.25068506  0.83833996    -0.03100
C876        C  0.15269490  0.26683430  0.82374035    -0.17600
H877        H  0.13873763  0.28976156  0.75340150     0.20400
H878        H  0.17278630  0.23167777  0.71303258     0.18800
H879        H  0.16535759  0.24481605  0.62068815     0.18700
H880        H  0.14607559  0.27736769  0.84416512     0.14600
C881        C  0.16003082  0.26185286  0.19941526     0.30000
C882        C  0.15969348  0.25546030  0.24433098    -0.36300
C883        C  0.16423568  0.26833664  0.27771849     0.16000
C884        C  0.16870278  0.28637345  0.26795215     0.21800
C885        C  0.16970569  0.29263428  0.22258422    -0.34400
C886        C  0.16523293  0.27964098  0.18890303     0.15900
O887        O  0.15474781  0.25249118  0.16342234    -0.26400
C888        C  0.15688910  0.26428121  0.12936585     0.05700
C889        C  0.16354808  0.28134578  0.14269255    -0.31300
O890        O  0.17015809  0.29650186  0.30524965    -0.23200
C891        C  0.16678978  0.28460983  0.33878958    -0.03100
C892        C  0.16325298  0.26690276  0.32364088    -0.17600
H893        H  0.15534054  0.24164272  0.25280256     0.20400
H894        H  0.17287570  0.30677887  0.21428362     0.18800
H895        H  0.16601548  0.29335521  0.12168895     0.18700
H896        H  0.15914098  0.25501387  0.34348820     0.14600
C897        C  0.35035387  0.28801024  0.76942458     0.30000
C898        C  0.35205198  0.29423456  0.81466424    -0.36300
C899        C  0.35639404  0.28077375  0.84717565     0.16000
C900        C  0.35912867  0.26253024  0.83586380     0.21800
C901        C  0.35700790  0.25625301  0.79096353    -0.34400
C902        C  0.35242025  0.26963445  0.75867176     0.15900
O903        O  0.34785547  0.29832112  0.73282116    -0.26400
C904        C  0.34805807  0.28627020  0.69856527     0.05700
C905        C  0.35063663  0.26823861  0.71272949    -0.31300
O906        O  0.36359066  0.25240043  0.87140684    -0.23200
C907        C  0.36341435  0.26426991  0.90589544    -0.03100
C908        C  0.35896882  0.28209001  0.89311372    -0.17600
H909        H  0.35048521  0.30857449  0.82371773     0.20400
H910        H  0.35909885  0.24199597  0.78171529     0.18800
H911        H  0.35232165  0.25604815  0.69182793     0.18700
H912        H  0.35778746  0.29416492  0.91461443     0.14600
C913        C  0.35629099  0.27319945  0.33457949     0.30000
C914        C  0.35671748  0.27915006  0.28910762    -0.36300
C915        C  0.35087106  0.26635044  0.25656338     0.16000
C916        C  0.34534363  0.24873937  0.26768788     0.21800
C917        C  0.34439076  0.24295883  0.31343769    -0.34400
C918        C  0.34994864  0.25591016  0.34618319     0.15900
O919        O  0.36193044  0.28265279  0.37027309    -0.26400
C920        C  0.35887774  0.27139844  0.40518962     0.05700
C921        C  0.35126652  0.25463940  0.39253512    -0.31300
O922        O  0.34234357  0.23850164  0.23114692    -0.23200
C923        C  0.34554034  0.24994368  0.19656667    -0.03100
C924        C  0.35075135  0.26743879  0.21032583    -0.17600
H925        H  0.36170329  0.29264892  0.27966647     0.20400
H926        H  0.34013066  0.22920559  0.32274241     0.18800
H927        H  0.34769382  0.24311187  0.41422518     0.18700
H928        H  0.35513542  0.27886259  0.18918405     0.14600
C929        C  0.27239811  0.29873246  0.52006139     0.30000
C930        C  0.25686735  0.28783929  0.51237588    -0.36300
C931        C  0.24010403  0.29711241  0.50915102     0.16000
C932        C  0.23847579  0.31593964  0.51241743     0.21800
C933        C  0.25420729  0.32698315  0.52014890    -0.34400
C934        C  0.27118117  0.31758291  0.52408817     0.15900
O935        O  0.28921882  0.29251928  0.52572392    -0.26400
C936        C  0.29925995  0.30743505  0.53382046     0.05700
C937        C  0.28878287  0.32355556  0.53317522    -0.31300
O938        O  0.22113429  0.32146664  0.50768840    -0.23200
C939        C  0.21174652  0.30582655  0.50185493    -0.03100
C940        C  0.22295735  0.29037537  0.50262350    -0.17600
H941        H  0.25776898  0.27303571  0.50972597     0.20400
H942        H  0.25326815  0.34176721  0.52335306     0.18800
H943        H  0.29336910  0.33748672  0.53936092     0.18700
H944        H  0.21904267  0.27613501  0.49814107     0.14600
C945        C  0.77203177  0.72099788  0.52909664     0.30000
C946        C  0.75568709  0.71060910  0.53204894    -0.36300
C947        C  0.73980316  0.71875928  0.51323639     0.16000
C948        C  0.74011720  0.73595708  0.49333819     0.21800
C949        C  0.75634105  0.74621457  0.49015208    -0.34400
C950        C  0.77209043  0.73808131  0.50862325     0.15900
O951        O  0.78840713  0.71649976  0.54558665    -0.26400
C952        C  0.79895854  0.73093268  0.53526320     0.05700
C953        C  0.78946807  0.74469014  0.51223434    -0.31300
O954        O  0.72378525  0.74142747  0.47977316    -0.23200
C955        C  0.71267363  0.72757702  0.49054303    -0.03100
C956        C  0.72185295  0.71297852  0.51138281    -0.17600
H957        H  0.75532108  0.69727413  0.54842205     0.20400
H958        H  0.75659624  0.75978078  0.47496587     0.18800
H959        H  0.79455917  0.75790000  0.50081736     0.18700
H960        H  0.71607370  0.70033643  0.52457501     0.14600
C961        C  0.90751863  0.81848424  0.61236803     0.30000
C962        C  0.90821515  0.83767021  0.61629205    -0.36300
C963        C  0.92315235  0.84480698  0.64090065     0.16000
C964        C  0.93633508  0.83382932  0.66114032     0.21800
C965        C  0.93591031  0.81463121  0.65617203    -0.34400
C966        C  0.92113363  0.80749531  0.63073821     0.15900
O967        O  0.89429761  0.80889458  0.59274047    -0.26400
C968        C  0.89967772  0.79154747  0.59773321     0.05700
C969        C  0.91636315  0.78981816  0.62068947    -0.31300
O970        O  0.94828682  0.84340123  0.68549496    -0.23200
C971        C  0.94287582  0.86073443  0.67987154    -0.03100
C972        C  0.92740114  0.86242804  0.65221885    -0.17600
H973        H  0.89764038  0.84641508  0.60192056     0.20400
H974        H  0.94616792  0.80585552  0.67178244     0.18800
H975        H  0.92351651  0.77733496  0.63009286     0.18700
H976        H  0.91988203  0.87479041  0.64358502     0.14600
C977        C  0.66014074  0.75871576  0.18382904     0.30000
C978        C  0.66610254  0.74503455  0.21438762    -0.36300
C979        C  0.66359387  0.74880983  0.26119119     0.16000
C980        C  0.65596503  0.76504442  0.27663057     0.21800
C981        C  0.64990468  0.77863149  0.24623039    -0.34400
C982        C  0.65218517  0.77474550  0.19960204     0.15900
O983        O  0.66078406  0.75797273  0.13861810    -0.26400
C984        C  0.65291360  0.77361791  0.12549634     0.05700
C985        C  0.64730198  0.78457339  0.16197655    -0.31300
O986        O  0.65465028  0.76568329  0.32151511    -0.23200
C987        C  0.66134813  0.74960931  0.33526635    -0.03100
C988        C  0.66714424  0.73847359  0.29926670    -0.17600
H989        H  0.67203545  0.73225469  0.20248858     0.20400
H990        H  0.64359326  0.79123912  0.25812443     0.18800
H991        H  0.64055025  0.79782674  0.16083178     0.18700
H992        H  0.67287295  0.72476743  0.30090863     0.14600
C993        C  0.66804627  0.76894215  0.68847987     0.30000
C994        C  0.67835768  0.76617777  0.72850859    -0.36300
C995        C  0.67383369  0.77749502  0.76569984     0.16000
C996        C  0.66050950  0.79098119  0.76295866     0.21800
C997        C  0.65017027  0.79369192  0.72308659    -0.34400
C998        C  0.65425459  0.78198091  0.68654115     0.15900
O999        O  0.66926986  0.75929113  0.65045082    -0.26400
C1000       C  0.65585065  0.76601751  0.62453255     0.05700
C1001       C  0.64597936  0.78007865  0.64508724    -0.31300
O1002       O  0.65773771  0.79926385  0.80231099    -0.23200
C1003       C  0.66915808  0.79082860  0.83092414    -0.03100
C1004       C  0.67956867  0.77712295  0.81020415    -0.17600
H1005       H  0.68864259  0.75547121  0.73102308     0.20400
H1006       H  0.63916432  0.80369327  0.72139930     0.18800
H1007       H  0.63443438  0.78771703  0.63142123     0.18700
H1008       H  0.68924339  0.76776356  0.82600452     0.14600
C1009       C  0.85532993  0.78935421  0.28048108     0.30000
C1010       C  0.85372770  0.79560765  0.32585516    -0.36300
C1011       C  0.85894144  0.78301816  0.35989703     0.16000
C1012       C  0.86565386  0.76572501  0.34969803     0.21800
C1013       C  0.86721307  0.75951420  0.30465746    -0.34400
C1014       C  0.86164933  0.77186725  0.27095771     0.15900
O1015       O  0.85114194  0.79857825  0.24297367    -0.26400
C1016       C  0.85466653  0.78663817  0.20953402     0.05700
C1017       C  0.86117561  0.76984521  0.22500634    -0.31300
O1018       O  0.86947602  0.75605666  0.38636516    -0.23200
C1019       C  0.86489771  0.76709877  0.42065905    -0.03100
C1020       C  0.85826175  0.78410358  0.40651401    -0.17600
H1021       H  0.84853205  0.80915756  0.33402940     0.20400
H1022       H  0.87214103  0.74585884  0.29649548     0.18800
H1023       H  0.86531340  0.75797245  0.20510985     0.18700
H1024       H  0.85352865  0.79544519  0.42745155     0.14600
C1025       C  0.84289207  0.75635646  0.86107236     0.30000
C1026       C  0.84080756  0.74162672  0.83051527    -0.36300
C1027       C  0.83920758  0.74633794  0.78411273     0.16000
C1028       C  0.83916152  0.76433635  0.76908691     0.21800
C1029       C  0.84092666  0.77905006  0.79966644    -0.34400
C1030       C  0.84307126  0.77432700  0.84579627     0.15900
O1031       O  0.84667640  0.75504830  0.90509848    -0.26400
C1032       C  0.84949399  0.77234967  0.91773426     0.05700
C1033       C  0.84744405  0.78495473  0.88249560    -0.31300
O1034       O  0.83965009  0.76561173  0.72417510    -0.23200
C1035       C  0.84018690  0.74826197  0.71011845    -0.03100
C1036       C  0.83977653  0.73561857  0.74585103    -0.17600
H1037       H  0.84159377  0.72748216  0.84179836     0.20400
H1038       H  0.84184099  0.79312872  0.78792605     0.18800
H1039       H  0.84960130  0.79967126  0.88349523     0.18700
H1040       H  0.84109732  0.72082159  0.74398793     0.14600
C1041       C  0.77421820  0.81802982  0.03351042     0.30000
C1042       C  0.75996772  0.82745230  0.01062886    -0.36300
C1043       C  0.74229229  0.81956695  0.01388202     0.16000
C1044       C  0.73906355  0.80356595  0.03799214     0.21800
C1045       C  0.75315120  0.79428291  0.06080587    -0.34400
C1046       C  0.77064181  0.80206163  0.05739899     0.15900
O1047       O  0.79194598  0.82230368  0.03383371    -0.26400
C1048       C  0.79960352  0.80879663  0.05815803     0.05700
C1049       C  0.78696242  0.79587640  0.07343753    -0.31300
O1050       O  0.72202879  0.79778656  0.03435222    -0.23200
C1051       C  0.71396415  0.81016590  0.00767841    -0.03100
C1052       C  0.72583696  0.82421117  0.99403654    -0.17600
H1053       H  0.76254769  0.83975882  0.99080581     0.20400
H1054       H  0.75071973  0.78152782  0.07889817     0.18800
H1055       H  0.78952627  0.78344247  0.09276429     0.18700
H1056       H  0.72301971  0.83553960  0.97104810     0.14600
C1057       C  0.88964504  0.87547128  0.94564719     0.30000
C1058       C  0.90326073  0.88902031  0.94261754    -0.36300
C1059       C  0.90799580  0.89457935  0.89827440     0.16000
C1060       C  0.89950844  0.88767501  0.85951607     0.21800
C1061       C  0.88574414  0.87425165  0.86258988    -0.34400
C1062       C  0.88142327  0.86826185  0.90689207     0.15900
O1063       O  0.88559801  0.86611731  0.98282573    -0.26400
C1064       C  0.87478871  0.85269790  0.96776806     0.05700
C1065       C  0.87175342  0.85325061  0.92080570    -0.31300
O1066       O  0.90815282  0.89231543  0.82164669    -0.23200
C1067       C  0.92240530  0.90211499  0.83629411    -0.03100
C1068       C  0.92298705  0.90405496  0.88361064    -0.17600
H1069       H  0.91085599  0.89359428  0.97245223     0.20400
H1070       H  0.88012107  0.86766617  0.83238741     0.18800
H1071       H  0.86498845  0.84307203  0.89960367     0.18700
H1072       H  0.93406811  0.90957334  0.90427235     0.14600
C1073       C  0.94176432  0.84029057  0.13486637     0.30000
C1074       C  0.96104765  0.84097420  0.13746996    -0.36300
C1075       C  0.96845684  0.85511432  0.16449474     0.16000
C1076       C  0.95763143  0.86800442  0.18638604     0.21800
C1077       C  0.93835902  0.86726747  0.18400054    -0.34400
C1078       C  0.93094859  0.85285660  0.15791401     0.15900
O1079       O  0.93194258  0.82821059  0.11161990    -0.26400
C1080       C  0.91459622  0.83286467  0.12057728     0.05700
C1081       C  0.91314954  0.84813195  0.14915952    -0.31300
O1082       O  0.96743456  0.88036476  0.20863221    -0.23200
C1083       C  0.98474897  0.87515075  0.20161679    -0.03100
C1084       C  0.98625578  0.85945975  0.17461808    -0.17600
H1085       H  0.96966432  0.83110464  0.11986097     0.20400
H1086       H  0.92974566  0.87719355  0.20144681     0.18800
H1087       H  0.90078894  0.85500811  0.16078984     0.18700
H1088       H  0.99864751  0.85258198  0.16323347     0.14600
C1089       C  0.54822866  0.85532026  0.85594575     0.30000
C1090       C  0.55520276  0.83808299  0.86846687    -0.36300
C1091       C  0.57394556  0.83755518  0.87980866     0.16000
C1092       C  0.58513374  0.85288561  0.87863903     0.21800
C1093       C  0.57814803  0.87014105  0.86631556    -0.34400
C1094       C  0.55936603  0.87069776  0.85546195     0.15900
O1095       O  0.53103144  0.85906290  0.84479651    -0.26400
C1096       C  0.53115907  0.87711058  0.83770773     0.05700
C1097       C  0.54838391  0.88505991  0.84395082    -0.31300
O1098       O  0.60197740  0.84942239  0.89307114    -0.23200
C1099       C  0.60155332  0.83165204  0.90371625    -0.03100
C1100       C  0.58447456  0.82357312  0.89606102    -0.17600
H1101       H  0.54654300  0.82599874  0.87015454     0.20400
H1102       H  0.58664889  0.88235925  0.86630377     0.18800
H1103       H  0.55223327  0.89935624  0.84028736     0.18700
H1104       H  0.58018975  0.80966217  0.90371827     0.14600
C1105       C  0.43723720  0.20332921  0.64125698     0.30000
C1106       C  0.43739940  0.22240076  0.63392866    -0.36300
C1107       C  0.42226411  0.22955184  0.60997351     0.16000
C1108       C  0.40778342  0.21872282  0.59543045     0.21800
C1109       C  0.40774887  0.19968917  0.60222543    -0.34400
C1110       C  0.42305788  0.19249713  0.62504439     0.15900
O1111       O  0.44960620  0.19375031  0.66410560    -0.26400
C1112       C  0.44340713  0.17655752  0.66155132     0.05700
C1113       C  0.42700883  0.17495541  0.63746426    -0.31300
O1114       O  0.39461362  0.22829899  0.57582028    -0.23200
C1115       C  0.40086216  0.24544578  0.57687786    -0.03100
C1116       C  0.41804733  0.24710084  0.59750500    -0.17600
H1117       H  0.44845547  0.23105389  0.64631185     0.20400
H1118       H  0.39648646  0.19109352  0.59078430     0.18800
H1119       H  0.41877628  0.16275923  0.63185682     0.18700
H1120       H  0.42591227  0.25948284  0.60381112     0.14600
C1121       C  0.41392130  0.14417277  0.88999941     0.30000
C1122       C  0.41264425  0.15044472  0.93510707    -0.36300
C1123       C  0.39725301  0.16111976  0.94539950     0.16000
C1124       C  0.38384463  0.16541889  0.91360288     0.21800
C1125       C  0.38482214  0.15858243  0.86851405    -0.34400
C1126       C  0.40036268  0.14783388  0.85808340     0.15900
O1127       O  0.42883556  0.13722789  0.87149207    -0.26400
C1128       C  0.42482607  0.13597664  0.82723794     0.05700
C1129       C  0.40719677  0.14217653  0.81675874    -0.31300
O1130       O  0.37252600  0.17832011  0.92867280    -0.23200
C1131       C  0.37872536  0.18194419  0.97069953    -0.03100
C1132       C  0.39400821  0.17166104  0.98270784    -0.17600
H1133       H  0.42375076  0.14854820  0.95939992     0.20400
H1134       H  0.37503996  0.16265387  0.84245463     0.18800
H1135       H  0.40139283  0.14462739  0.78313058     0.18700
H1136       H  0.40269519  0.17328689  0.01262946     0.14600
C1137       C  0.47624986  0.03506231  0.74340945     0.30000
C1138       C  0.48661130  0.01891442  0.74360370    -0.36300
C1139       C  0.47746203  0.00311226  0.75822724     0.16000
C1140       C  0.45933433  0.00302147  0.77229590     0.21800
C1141       C  0.44881524  0.01931239  0.77168999    -0.34400
C1142       C  0.45799527  0.03527222  0.75650944     0.15900
O1143       O  0.48245648  0.05137356  0.73209831    -0.26400
C1144       C  0.46806409  0.06240321  0.73739752     0.05700
C1145       C  0.45233442  0.05317813  0.75240140    -0.31300
O1146       O  0.45400307  0.98657808  0.78670112    -0.23200
C1147       C  0.46896362  0.97616407  0.78128257    -0.03100
C1148       C  0.48385184  0.98580282  0.76351546    -0.17600
H1149       H  0.50095906  0.01873832  0.73358137     0.20400
H1150       H  0.43460526  0.01957814  0.78280179     0.18800
H1151       H  0.43894059  0.05887709  0.76021344     0.18700
H1152       H  0.49765656  0.98087202  0.75686342     0.14600
C1153       C  0.59140868  0.80588690  0.43448818     0.30000
C1154       C  0.57550149  0.81211913  0.41223454    -0.36300
C1155       C  0.57511493  0.83088890  0.40144432     0.16000
C1156       C  0.58928837  0.84278205  0.41221714     0.21800
C1157       C  0.60519928  0.83654179  0.43434962    -0.34400
C1158       C  0.60565049  0.81776804  0.44475839     0.15900
O1159       O  0.59513026  0.78873924  0.44583334    -0.26400
C1160       C  0.61199435  0.78972584  0.46336751     0.05700
C1161       C  0.61917956  0.80742221  0.46360615    -0.31300
O1162       O  0.58629159  0.85963769  0.39743806    -0.23200
C1163       C  0.57004039  0.85848538  0.37668306    -0.03100
C1164       C  0.56247054  0.84093464  0.37806139    -0.17600
H1165       H  0.56440645  0.80290754  0.40296728     0.20400
H1166       H  0.61662098  0.84560226  0.44195310     0.18800
H1167       H  0.63264802  0.81190660  0.47488854     0.18700
H1168       H  0.54973340  0.83618686  0.36287674     0.14600
C1169       C  0.61790806  0.87405558  0.08917942     0.30000
C1170       C  0.60264665  0.88533084  0.09659695    -0.36300
C1171       C  0.60035632  0.89179989  0.14131624     0.16000
C1172       C  0.61243712  0.88775249  0.17645480     0.21800
C1173       C  0.62811631  0.87689093  0.16861606    -0.34400
C1174       C  0.63025617  0.87012717  0.12382441     0.15900
O1175       O  0.62054775  0.86393875  0.05250105    -0.26400
C1176       C  0.63494754  0.85361550  0.06319523     0.05700
C1177       C  0.64166085  0.85680982  0.10708884    -0.31300
O1178       O  0.60572167  0.89220500  0.21703383    -0.23200
C1179       C  0.58922422  0.89915835  0.20751189    -0.03100
C1180       C  0.58525111  0.89934055  0.16101126    -0.17600
H1181       H  0.59230766  0.88742224  0.07041010     0.20400
H1182       H  0.63701126  0.87258961  0.19634784     0.18800
H1183       H  0.65199093  0.84906537  0.12552671     0.18700
H1184       H  0.57219888  0.90236015  0.14478853     0.14600
C1185       C  0.50299945  0.92948630  0.01505792     0.30000
C1186       C  0.51694024  0.92360796  0.04457125    -0.36300
C1187       C  0.51212830  0.92224053  0.09074967     0.16000
C1188       C  0.49500235  0.92709122  0.10733294     0.21800
C1189       C  0.48099351  0.93306979  0.07770901    -0.34400
C1190       C  0.48561045  0.93374712  0.03098219     0.15900
O1191       O  0.50398221  0.92939233  0.97014965    -0.26400
C1192       C  0.48698883  0.93332177  0.95674750     0.05700
C1193       C  0.47489755  0.93627853  0.99305580    -0.31300
O1194       O  0.49352361  0.92432556  0.15186603    -0.23200
C1195       C  0.50976237  0.91723631  0.16322457    -0.03100
C1196       C  0.52183081  0.91554216  0.12670371    -0.17600
H1197       H  0.53030226  0.91938678  0.03199318     0.20400
H1198       H  0.46725417  0.93606291  0.08991363     0.18800
H1199       H  0.46020868  0.93865186  0.99167208     0.18700
H1200       H  0.53575712  0.91025859  0.12683225     0.14600
C1201       C  0.51809695  0.91858064  0.60810461     0.30000
C1202       C  0.53205922  0.92411075  0.57776123    -0.36300
C1203       C  0.52776631  0.92285256  0.53093301     0.16000
C1204       C  0.51080000  0.91691238  0.51553590     0.21800
C1205       C  0.49700610  0.91127520  0.54565205    -0.34400
C1206       C  0.50140929  0.91215949  0.59207522     0.15900
O1207       O  0.51894680  0.91849824  0.65325748    -0.26400
C1208       C  0.50271319  0.91165672  0.66572446     0.05700
C1209       C  0.49131656  0.90737910  0.62916775    -0.31300
O1210       O  0.50968298  0.91644036  0.47075621    -0.23200
C1211       C  0.52616157  0.92192214  0.45687188    -0.03100
C1212       C  0.53810745  0.92611966  0.49270013    -0.17600
H1213       H  0.54534863  0.92880718  0.58976094     0.20400
H1214       H  0.48383822  0.90625059  0.53362255     0.18800
H1215       H  0.47746788  0.90189205  0.62994794     0.18700
H1216       H  0.55231413  0.93052830  0.49081397     0.14600
C1217       C  0.46473882  0.18000472  0.17774753     0.30000
C1218       C  0.45796466  0.19744777  0.16628325    -0.36300
C1219       C  0.43926939  0.19826126  0.15450291     0.16000
C1220       C  0.42793702  0.18302723  0.15464416     0.21800
C1221       C  0.43472021  0.16559884  0.16612504    -0.34400
C1222       C  0.45347573  0.16472453  0.17703994     0.15900
O1223       O  0.48188049  0.17595708  0.18860337    -0.26400
C1224       C  0.48160904  0.15781811  0.19413024     0.05700
C1225       C  0.46433530  0.15009207  0.18727801    -0.31300
O1226       O  0.41125518  0.18669116  0.13939044    -0.23200
C1227       C  0.41191611  0.20447985  0.12910814    -0.03100
C1228       C  0.42899781  0.21239564  0.13795577    -0.17600
H1229       H  0.46676967  0.20944004  0.16530412     0.20400
H1230       H  0.42611949  0.15345858  0.16505617     0.18800
H1231       H  0.46035680  0.13579572  0.18995571     0.18700
H1232       H  0.43349713  0.22626498  0.13059491     0.14600
C1233       C  0.51924138  0.10815306  0.93026115     0.30000
C1234       C  0.53326331  0.10247592  0.96017347    -0.36300
C1235       C  0.52833623  0.10096285  0.00654874     0.16000
C1236       C  0.51066320  0.10421580  0.02199044     0.21800
C1237       C  0.49666840  0.10980132  0.99214011    -0.34400
C1238       C  0.50176055  0.11196609  0.94623700     0.15900
O1239       O  0.52096788  0.11144859  0.88599592    -0.26400
C1240       C  0.50451307  0.11784678  0.87406138     0.05700
C1241       C  0.49204760  0.11854233  0.91003414    -0.31300
O1242       O  0.50943428  0.10378502  0.06691671    -0.23200
C1243       C  0.52654050  0.10050653  0.08072826    -0.03100
C1244       C  0.53892646  0.09850733  0.04468070    -0.17600
H1245       H  0.54723215  0.10028985  0.94847328     0.20400
H1246       H  0.48301871  0.11322599  0.00433682     0.18800
H1247       H  0.47785174  0.12305055  0.90935205     0.18700
H1248       H  0.55372190  0.09694267  0.04644567     0.14600
C1249       C  0.48752310  0.11371979  0.50849736     0.30000
C1250       C  0.48133502  0.11224222  0.46304628    -0.36300
C1251       C  0.49383705  0.11792252  0.42920340     0.16000
C1252       C  0.51108414  0.12476904  0.43952172     0.21800
C1253       C  0.51735024  0.12593510  0.48464389    -0.34400
C1254       C  0.50500678  0.12006000  0.51823062     0.15900
O1255       O  0.47796858  0.11007798  0.54593854    -0.26400
C1256       C  0.48969274  0.11391682  0.57967538     0.05700
C1257       C  0.50670820  0.12003673  0.56434166    -0.31300
O1258       O  0.52046784  0.12950296  0.40291146    -0.23200
C1259       C  0.50922606  0.12543989  0.36856710    -0.03100
C1260       C  0.49245619  0.11814605  0.38267213    -0.17600
H1261       H  0.46772620  0.10720192  0.45469575     0.20400
H1262       H  0.53088438  0.13117562  0.49301120     0.18800
H1263       H  0.51836117  0.12464646  0.58443601     0.18700
H1264       H  0.48104086  0.11359318  0.36169266     0.14600
C1265       C  0.55381700  0.03303904  0.27029729     0.30000
C1266       C  0.56468490  0.01697360  0.27110818    -0.36300
C1267       C  0.55563793  0.00066085  0.28427282     0.16000
C1268       C  0.53719589  0.00034914  0.29555325     0.21800
C1269       C  0.52649811  0.01631178  0.29551763    -0.34400
C1270       C  0.53550263  0.03247554  0.28268575     0.15900
O1271       O  0.55893496  0.04961425  0.25638730    -0.26400
C1272       C  0.54367765  0.05969786  0.26043623     0.05700
C1273       C  0.52877696  0.04968752  0.27693169    -0.31300
O1274       O  0.53116327  0.98375214  0.30476795    -0.23200
C1275       C  0.54585373  0.97306292  0.29990491    -0.03100
C1276       C  0.56160566  0.98280754  0.28732002    -0.17600
H1277       H  0.57903576  0.01710322  0.26116359     0.20400
H1278       H  0.51198718  0.01606275  0.30395010     0.18800
H1279       H  0.51473940  0.05425782  0.28194192     0.18700
H1280       H  0.57523809  0.97749150  0.28044479     0.14600
C1281       C  0.93663676  0.70161736  0.13478137     0.30000
C1282       C  0.93732285  0.72026848  0.12271552    -0.36300
C1283       C  0.92170716  0.72734175  0.10064460     0.16000
C1284       C  0.90632917  0.71686031  0.09138880     0.21800
C1285       C  0.90579514  0.69804399  0.10247128    -0.34400
C1286       C  0.92152933  0.69092482  0.12424456     0.15900
O1287       O  0.94917092  0.69260765  0.15862281    -0.26400
C1288       C  0.94218548  0.67578861  0.16286142     0.05700
C1289       C  0.92505209  0.67391491  0.14186632    -0.31300
O1290       O  0.89269975  0.72674794  0.07426293    -0.23200
C1291       C  0.89956701  0.74373199  0.07197193    -0.03100
C1292       C  0.91760329  0.74483844  0.08761298    -0.17600
H1293       H  0.94898687  0.72883769  0.13134084     0.20400
H1294       H  0.89374804  0.68969743  0.09599437     0.18800
H1295       H  0.91610130  0.66202692  0.14176022     0.18700
H1296       H  0.92607804  0.75697836  0.09128167     0.14600
C1297       C  0.89876688  0.65205858  0.35797436     0.30000
C1298       C  0.88470073  0.66505908  0.36416301    -0.36300
C1299       C  0.88059415  0.66977744  0.40970333     0.16000
C1300       C  0.88938963  0.66179422  0.44664094     0.21800
C1301       C  0.90301575  0.64837959  0.44047731    -0.34400
C1302       C  0.90752717  0.64410398  0.39499902     0.15900
O1303       O  0.90731190  0.64869369  0.31898530    -0.26400
C1304       C  0.92167099  0.63846536  0.33107663     0.05700
C1305       C  0.92252457  0.63517424  0.37793201    -0.31300
O1306       O  0.88599998  0.67044425  0.48540437    -0.23200
C1307       C  0.87479640  0.68405032  0.47348745    -0.03100
C1308       C  0.87093313  0.68434902  0.42679152    -0.17600
H1309       H  0.87874655  0.67237139  0.33546009     0.20400
H1310       H  0.91090034  0.64309663  0.46905895     0.18800
H1311       H  0.93367851  0.62897532  0.39704500     0.18700
H1312       H  0.86385710  0.69495119  0.40765808     0.14600
C1313       C  0.97488694  0.53582169  0.26892749     0.30000
C1314       C  0.98527768  0.51993931  0.27532681    -0.36300
C1315       C  0.97538013  0.50371130  0.28132960     0.16000
C1316       C  0.95642316  0.50286123  0.28179960     0.21800
C1317       C  0.94586150  0.51896163  0.27507623    -0.34400
C1318       C  0.95589420  0.53541496  0.26836660     0.15900
O1319       O  0.98169128  0.55231139  0.26220541    -0.26400
C1320       C  0.96702137  0.56293390  0.25687131     0.05700
C1321       C  0.95047336  0.55319851  0.26015109    -0.31300
O1322       O  0.95033991  0.48583256  0.28868559    -0.23200
C1323       C  0.96576631  0.47589472  0.29193151    -0.03100
C1324       C  0.98159074  0.48644367  0.28758157    -0.17600
H1325       H  0.00017621  0.52020152  0.27530514     0.20400
H1326       H  0.93096938  0.51868235  0.27483239     0.18800
H1327       H  0.93659733  0.55842615  0.25682438     0.18700
H1328       H  0.99579711  0.48201347  0.28941151     0.14600
C1329       C  0.08399440  0.35288428  0.37559881     0.30000
C1330       C  0.07651623  0.37013010  0.36513663    -0.36300
C1331       C  0.05789878  0.37026223  0.35257242     0.16000
C1332       C  0.04738806  0.35450198  0.34955334     0.21800
C1333       C  0.05487088  0.33724458  0.36002329    -0.34400
C1334       C  0.07341093  0.33714112  0.37344092     0.15900
O1335       O  0.10053210  0.34982705  0.39255278    -0.26400
C1336       C  0.10049019  0.33193996  0.40175460     0.05700
C1337       C  0.08399897  0.32333960  0.39052463    -0.31300
O1338       O  0.03016172  0.35790716  0.33792211    -0.23200
C1339       C  0.02962710  0.37610599  0.33388637    -0.03100
C1340       C  0.04647476  0.38448990  0.34276949    -0.17600
H1341       H  0.08446368  0.38265188  0.36829292     0.20400
H1342       H  0.04664010  0.32485006  0.35933646     0.18800
H1343       H  0.07999639  0.30924911  0.39700006     0.18700
H1344       H  0.04980039  0.39899002  0.34205971     0.14600
C1345       C  0.93582904  0.69681058  0.66797367     0.30000
C1346       C  0.95420419  0.69812417  0.68251217    -0.36300
C1347       C  0.96283436  0.68150522  0.69396708     0.16000
C1348       C  0.95406263  0.66473222  0.69069146     0.21800
C1349       C  0.93560268  0.66346157  0.67687129    -0.34400
C1350       C  0.92687850  0.68009787  0.66613740     0.15900
O1351       O  0.92558046  0.71039034  0.65243743    -0.26400
C1352       C  0.90972185  0.70234689  0.64141530     0.05700
C1353       C  0.90969324  0.68352370  0.64950651    -0.31300
O1354       O  0.96495396  0.65087371  0.70125539    -0.23200
C1355       C  0.98086026  0.65886278  0.71201934    -0.03100
C1356       C  0.98032972  0.67792262  0.70826408    -0.17600
H1357       H  0.96138454  0.71114511  0.68386183     0.20400
H1358       H  0.92861942  0.65037299  0.67393418     0.18800
H1359       H  0.89907343  0.67364655  0.64108961     0.18700
H1360       H  0.99131993  0.68765501  0.71443232     0.14600
C1361       C  0.02561947  0.60555783  0.52189860     0.30000
C1362       C  0.03169593  0.60638435  0.47633126    -0.36300
C1363       C  0.01870753  0.61248336  0.44423358     0.16000
C1364       C  0.00102590  0.61756329  0.45617587     0.21800
C1365       C  0.99474670  0.61603825  0.50132670    -0.34400
C1366       C  0.00764705  0.60976063  0.53325378     0.15900
O1367       O  0.03597380  0.60259490  0.55831898    -0.26400
C1368       C  0.02430488  0.60451469  0.59311045     0.05700
C1369       C  0.00647755  0.60868560  0.57945998    -0.31300
O1370       O  0.99154161  0.62394516  0.42118392    -0.23200
C1371       C  0.00322937  0.62268829  0.38632458    -0.03100
C1372       C  0.02025855  0.61549768  0.39843536    -0.17600
H1373       H  0.04575569  0.60326072  0.46685870     0.20400
H1374       H  0.98097333  0.62010751  0.51118668     0.18800
H1375       H  0.99481491  0.61225379  0.60080893     0.18700
H1376       H  0.03206356  0.61301949  0.37664078     0.14600
C1377       C  0.00489242  0.61380674  0.03460786     0.30000
C1378       C  0.01875539  0.61937490  0.00441285    -0.36300
C1379       C  0.01397957  0.61949327  0.95804220     0.16000
C1380       C  0.99695490  0.61389159  0.94225777     0.21800
C1381       C  0.98308682  0.60825002  0.97251181    -0.34400
C1382       C  0.98766941  0.60869550  0.01910877     0.15900
O1383       O  0.00584456  0.61440315  0.07949986    -0.26400
C1384       C  0.98898632  0.60987751  0.09296451     0.05700
C1385       C  0.97705279  0.60610986  0.05699254    -0.31300
O1386       O  0.99543806  0.61539166  0.89746820    -0.23200
C1387       C  0.01154139  0.62240311  0.88481299    -0.03100
C1388       C  0.02361994  0.62526638  0.92093052    -0.17600
H1389       H  0.03205173  0.62405871  0.01641308     0.20400
H1390       H  0.96947710  0.60449100  0.96067858     0.18800
H1391       H  0.96253201  0.60284831  0.05854029     0.18700
H1392       H  0.03750765  0.63063580  0.91982488     0.14600
C1393       C  0.99928961  0.41103712  0.09406905     0.30000
C1394       C  0.99414797  0.40717629  0.04907713    -0.36300
C1395       C  0.00535380  0.41477014  0.01529295     0.16000
C1396       C  0.02082044  0.42514538  0.02482897     0.21800
C1397       C  0.02577323  0.42933055  0.07004247    -0.34400
C1398       C  0.01433542  0.42196131  0.10401408     0.15900
O1399       O  0.99080191  0.40517329  0.13089337    -0.26400
C1400       C  0.00033884  0.41264647  0.16482874     0.05700
C1401       C  0.01511728  0.42328416  0.15040209    -0.31300
O1402       O  0.02999812  0.42965074  0.98753887    -0.23200
C1403       C  0.01999049  0.42228656  0.95414206    -0.03100
C1404       C  0.00445749  0.41305244  0.96934515    -0.17600
H1405       H  0.98234057  0.39869491  0.04099368     0.20400
H1406       H  0.03778072  0.43751509  0.07815343     0.18800
H1407       H  0.02498071  0.43075470  0.17106821     0.18700
H1408       H  0.99449603  0.40535989  0.94945910     0.14600
C1409       C  0.00075504  0.42231530  0.51389252     0.30000
C1410       C  0.01461155  0.41618778  0.54313163    -0.36300
C1411       C  0.01039872  0.41666211  0.58964546     0.16000
C1412       C  0.99384257  0.42311642  0.60652381     0.21800
C1413       C  0.97980135  0.42902208  0.57708756    -0.34400
C1414       C  0.98390034  0.42819432  0.53021386     0.15900
O1415       O  0.00160167  0.42225204  0.46910378    -0.26400
C1416       C  0.98505815  0.42794398  0.45634629     0.05700
C1417       C  0.97333462  0.43179082  0.49274272    -0.31300
O1418       O  0.99305798  0.42236503  0.65152920    -0.23200
C1419       C  0.00915520  0.41501755  0.66284957    -0.03100
C1420       C  0.02046174  0.41112301  0.62600760    -0.17600
H1421       H  0.02763048  0.41105903  0.53040839     0.20400
H1422       H  0.96657632  0.43360711  0.58974723     0.18800
H1423       H  0.95907744  0.43605674  0.49165927     0.18700
H1424       H  0.03413336  0.40520851  0.62620074     0.14600
C1425       C  0.03712313  0.53358277  0.78337449     0.30000
C1426       C  0.02658464  0.51847253  0.79689938    -0.36300
C1427       C  0.03549671  0.50147931  0.79667168     0.16000
C1428       C  0.05368231  0.49922957  0.78436579     0.21800
C1429       C  0.06434449  0.51451463  0.77051470    -0.34400
C1430       C  0.05529816  0.53172621  0.77044134     0.15900
O1431       O  0.03104644  0.55052903  0.77973814    -0.26400
C1432       C  0.04537072  0.55998936  0.76410152     0.05700
C1433       C  0.06095319  0.54901113  0.75764119    -0.31300
O1434       O  0.05893194  0.48174863  0.78665194    -0.23200
C1435       C  0.04375558  0.47291132  0.80032392    -0.03100
C1436       C  0.02888352  0.48460192  0.80689068    -0.17600
H1437       H  0.01224291  0.51984576  0.80638311     0.20400
H1438       H  0.07856323  0.51307531  0.76003856     0.18800
H1439       H  0.07424350  0.55305103  0.74425645     0.18700
H1440       H  0.01505200  0.48111774  0.81764180     0.14600
C1441       C  0.10286843  0.31755449  0.95482099     0.30000
C1442       C  0.10162558  0.33681064  0.95287170    -0.36300
C1443       C  0.08712872  0.34394342  0.92645652     0.16000
C1444       C  0.07489594  0.33286084  0.90305126     0.21800
C1445       C  0.07589238  0.31364756  0.90583853    -0.34400
C1446       C  0.09019474  0.30653937  0.93271592     0.15900
O1447       O  0.11585867  0.30792155  0.97539125    -0.26400
C1448       C  0.11119105  0.29053777  0.96704904     0.05700
C1449       C  0.09531197  0.28885743  0.94085468    -0.31300
O1450       O  0.06350761  0.34232976  0.87701974    -0.23200
C1451       C  0.06826919  0.35975481  0.88427659    -0.03100
C1452       C  0.08277352  0.36160852  0.91512076    -0.17600
H1453       H  0.11155264  0.34561070  0.96974103     0.20400
H1454       H  0.06647337  0.30483695  0.88728085     0.18800
H1455       H  0.08893010  0.27641664  0.92812768     0.18700
H1456       H  0.08982872  0.37406156  0.92529473     0.14600
C1457       C  0.11348191  0.38376265  0.69311976     0.30000
C1458       C  0.12644392  0.36975402  0.68620154    -0.36300
C1459       C  0.13084070  0.36573554  0.64046869     0.16000
C1460       C  0.12358722  0.37538276  0.60392088     0.21800
C1461       C  0.11107144  0.38980576  0.61092714    -0.34400
C1462       C  0.10605122  0.39328447  0.65659515     0.15900
O1463       O  0.10448508  0.38672902  0.73169209    -0.26400
C1464       C  0.09107715  0.39821710  0.71990945     0.05700
C1465       C  0.09135980  0.40274888  0.67359771    -0.31300
O1466       O  0.12677298  0.36722995  0.56427455    -0.23200
C1467       C  0.13608029  0.35216392  0.57553789    -0.03100
C1468       C  0.13901775  0.35052636  0.62241285    -0.17600
H1469       H  0.13112790  0.36118388  0.71417163     0.20400
H1470       H  0.10413721  0.39639723  0.58251824     0.18800
H1471       H  0.08097301  0.41010945  0.65436959     0.18700
H1472       H  0.14447242  0.33881005  0.64076718     0.14600
C1473       C  0.12849342  0.86901970  0.42416126     0.30000
C1474       C  0.12825287  0.87440611  0.37789226    -0.36300
C1475       C  0.11374597  0.88604629  0.36487877     0.16000
C1476       C  0.10043312  0.89187434  0.39543969     0.21800
C1477       C  0.10098267  0.88694605  0.44169798    -0.34400
C1478       C  0.11537015  0.87535292  0.45458060     0.15900
O1479       O  0.13888716  0.85601973  0.44221851    -0.26400
C1480       C  0.13240558  0.85433777  0.48469643     0.05700
C1481       C  0.11780213  0.86594804  0.49415787    -0.31300
O1482       O  0.08630964  0.89956758  0.37498276    -0.23200
C1483       C  0.09068935  0.89910861  0.33083996    -0.03100
C1484       C  0.10767347  0.89098471  0.32236145    -0.17600
H1485       H  0.13779707  0.86876266  0.35310781     0.20400
H1486       H  0.09004334  0.89061429  0.46518405     0.18800
H1487       H  0.10912032  0.86610307  0.52434284     0.18700
H1488       H  0.11343164  0.88706451  0.28953917     0.14600
C1489       C  0.07427537  0.83609522  0.67975811     0.30000
C1490       C  0.05543389  0.83483075  0.69024163    -0.36300
C1491       C  0.04742453  0.85053070  0.70983372     0.16000
C1492       C  0.05732946  0.86635993  0.71828395     0.21800
C1493       C  0.07619078  0.86751247  0.70851399    -0.34400
C1494       C  0.08419621  0.85183124  0.68906959     0.15900
O1495       O  0.08413878  0.82368430  0.65783671    -0.26400
C1496       C  0.10064231  0.83147024  0.65343968     0.05700
C1497       C  0.10149913  0.84898390  0.67243827    -0.31300
O1498       O  0.04690718  0.87989628  0.73308931    -0.23200
C1499       C  0.03010063  0.87269254  0.73462030    -0.03100
C1500       C  0.02955815  0.85437948  0.72083481    -0.17600
H1501       H  0.04744173  0.82270767  0.68209226     0.20400
H1502       H  0.08393160  0.88002779  0.71409591     0.18800
H1503       H  0.11283846  0.85862753  0.67150588     0.18700
H1504       H  0.01764775  0.84557026  0.71709109     0.14600
C1505       C  0.07629480  0.69881565  0.63676931     0.30000
C1506       C  0.07538172  0.71749198  0.62514460    -0.36300
C1507       C  0.09208417  0.72586770  0.61319659     0.16000
C1508       C  0.10864705  0.71659651  0.61298168     0.21800
C1509       C  0.10952760  0.69780671  0.62392771    -0.34400
C1510       C  0.09275206  0.68936268  0.63547767     0.15900
O1511       O  0.06259494  0.68870141  0.65245074    -0.26400
C1512       C  0.07025925  0.67242081  0.66064515     0.05700
C1513       C  0.08898028  0.67200758  0.65039054    -0.31300
O1514       O  0.12264026  0.72737739  0.60220723    -0.23200
C1515       C  0.11485969  0.74370711  0.59504499    -0.03100
C1516       C  0.09589091  0.74352898  0.60129364    -0.17600
H1517       H  0.06258841  0.72508990  0.62638625     0.20400
H1518       H  0.12242885  0.69037450  0.62429048     0.18800
H1519       H  0.09864475  0.66094502  0.65632221     0.18700
H1520       H  0.08632770  0.75485031  0.59797704     0.14600
C1521       C  0.38024794  0.86511882  0.64663001     0.30000
C1522       C  0.38608910  0.86642157  0.69220907    -0.36300
C1523       C  0.39808760  0.88088076  0.70232048     0.16000
C1524       C  0.40388882  0.89346670  0.66997772     0.21800
C1525       C  0.39745471  0.89256571  0.62449351    -0.34400
C1526       C  0.38548380  0.87791960  0.61419549     0.15900
O1527       O  0.37246489  0.85053925  0.62833776    -0.26400
C1528       C  0.37228205  0.85403735  0.58364976     0.05700
C1529       C  0.37996196  0.87102535  0.57279244    -0.31300
O1530       O  0.41755487  0.90384186  0.68521662    -0.23200
C1531       C  0.42026074  0.89787350  0.72787406    -0.03100
C1532       C  0.40856262  0.88365644  0.74016981    -0.17600
H1533       H  0.38293622  0.85583223  0.71706174     0.20400
H1534       H  0.40270396  0.90161510  0.59811290     0.18800
H1535       H  0.38350808  0.87616352  0.53909791     0.18700
H1536       H  0.40902398  0.87535151  0.77095357     0.14600
C1537       C  0.46558530  0.85204926  0.35512961     0.30000
C1538       C  0.45936254  0.83757817  0.38274038    -0.36300
C1539       C  0.44033099  0.83678984  0.39021199     0.16000
C1540       C  0.42810879  0.84909920  0.37100010     0.21800
C1541       C  0.43432113  0.86352639  0.34306643    -0.34400
C1542       C  0.45343639  0.86459755  0.33655430     0.15900
O1543       O  0.48293827  0.85632349  0.34716161    -0.26400
C1544       C  0.48190308  0.87194510  0.32372938     0.05700
C1545       C  0.46391680  0.87773860  0.31608464    -0.31300
O1546       O  0.41103243  0.84642105  0.38504846    -0.23200
C1547       C  0.41243721  0.83234765  0.41397855    -0.03100
C1548       C  0.43032130  0.82580284  0.41837397    -0.17600
H1549       H  0.46878867  0.82811238  0.39907676     0.20400
H1550       H  0.42500376  0.87371672  0.32923617     0.18800
H1551       H  0.45930406  0.89020184  0.29941817     0.18700
H1552       H  0.43530379  0.81493318  0.44044281     0.14600
C1553       C  0.27178183  0.82035086  0.50774701     0.30000
C1554       C  0.25688540  0.83046946  0.52599789    -0.36300
C1555       C  0.23966769  0.82144772  0.52656230     0.16000
C1556       C  0.23744056  0.80384587  0.50979598     0.21800
C1557       C  0.25211103  0.79393882  0.49127342    -0.34400
C1558       C  0.26914490  0.80277955  0.49123178     0.15900
O1559       O  0.28937265  0.82527642  0.50666633    -0.26400
C1560       C  0.29788842  0.81051649  0.48956544     0.05700
C1561       C  0.28588796  0.79625741  0.47922050    -0.31300
O1562       O  0.22072512  0.79744150  0.51571606    -0.23200
C1563       C  0.21179376  0.81098133  0.53656870    -0.03100
C1564       C  0.22285384  0.82640175  0.54422371    -0.17600
H1565       H  0.25870763  0.84409787  0.54018250     0.20400
H1566       H  0.25047547  0.77996027  0.47923382     0.18800
H1567       H  0.28914773  0.78271488  0.46615805     0.18700
H1568       H  0.21924702  0.83903199  0.56166451     0.14600
C1569       C  0.10657106  0.82358672  0.08318674     0.30000
C1570       C  0.10735941  0.84258132  0.09129914    -0.36300
C1571       C  0.09135560  0.85056053  0.10936534     0.16000
C1572       C  0.07569045  0.84047074  0.11865593     0.21800
C1573       C  0.07467694  0.82165931  0.10888786    -0.34400
C1574       C  0.09067231  0.81369471  0.09112654     0.15900
O1575       O  0.12047511  0.81298662  0.07128940    -0.26400
C1576       C  0.11330422  0.79616142  0.07122000     0.05700
C1577       C  0.09478573  0.79577679  0.08295844    -0.31300
O1578       O  0.06343627  0.84988815  0.14205774    -0.23200
C1579       C  0.07117119  0.86629799  0.14740279    -0.03100
C1580       C  0.08844863  0.86765094  0.12714027    -0.17600
H1581       H  0.11992287  0.85035621  0.08660621     0.20400
H1582       H  0.06266506  0.81355570  0.11746226     0.18800
H1583       H  0.08593475  0.78392665  0.08713197     0.18700
H1584       H  0.09815320  0.87890554  0.12937009     0.14600
C1585       C  0.12943474  0.67793728  0.89748969     0.30000
C1586       C  0.12313549  0.67623594  0.85235040    -0.36300
C1587       C  0.11287000  0.66046061  0.84248093     0.16000
C1588       C  0.10893939  0.64715339  0.87475830     0.21800
C1589       C  0.11575874  0.64860469  0.91981486    -0.34400
C1590       C  0.12614097  0.66445230  0.92974692     0.15900
O1591       O  0.13640192  0.69297387  0.91555852    -0.26400
C1592       C  0.13805034  0.68908353  0.95988877     0.05700
C1593       C  0.13204492  0.67143492  0.97074569    -0.31300
O1594       O  0.09644202  0.63527823  0.86005261    -0.23200
C1595       C  0.09266921  0.64095060  0.81764557    -0.03100
C1596       C  0.10250396  0.65650976  0.80510884    -0.17600
H1597       H  0.12484098  0.68718531  0.82759324     0.20400
H1598       H  0.11203989  0.63881540  0.94615013     0.18800
H1599       H  0.13009198  0.66558029  0.00450834     0.18700
H1600       H  0.10066171  0.66488308  0.77475369     0.14600
C1601       C  0.08277266  0.68805185  0.16033524     0.30000
C1602       C  0.07696918  0.67172403  0.18126907    -0.36300
C1603       C  0.05829662  0.67079033  0.19298600     0.16000
C1604       C  0.04616375  0.68507527  0.18562269     0.21800
C1605       C  0.05196377  0.70140464  0.16427999    -0.34400
C1606       C  0.07060697  0.70218794  0.15158409     0.15900
O1607       O  0.09946291  0.69148876  0.14495925    -0.26400
C1608       C  0.09797452  0.70792211  0.12543268     0.05700
C1609       C  0.08032374  0.71525278  0.12830850    -0.31300
O1610       O  0.02922444  0.68102595  0.19878397    -0.23200
C1611       C  0.03055075  0.66384941  0.21422723    -0.03100
C1612       C  0.04830015  0.65680283  0.21120779    -0.17600
H1613       H  0.08628741  0.66035503  0.18704106     0.20400
H1614       H  0.04251857  0.71252974  0.15709247     0.18800
H1615       H  0.07537033  0.72817336  0.11472630     0.18700
H1616       H  0.05307677  0.64322814  0.22060508     0.14600
C1617       C  0.16872395  0.76578787  0.85234879     0.30000
C1618       C  0.17092134  0.75919446  0.80765263    -0.36300
C1619       C  0.17282366  0.77258344  0.77366418     0.16000
C1620       C  0.17252454  0.79119838  0.78297076     0.21800
C1621       C  0.17099196  0.79778575  0.82794846    -0.34400
C1622       C  0.16911268  0.78438219  0.86200898     0.15900
O1623       O  0.16461232  0.75580127  0.88842384    -0.26400
C1624       C  0.16265097  0.76813651  0.92154834     0.05700
C1625       C  0.16542998  0.78611556  0.90750134    -0.31300
O1626       O  0.17184877  0.80122544  0.74547354    -0.23200
C1627       C  0.17195132  0.78886397  0.71190824    -0.03100
C1628       C  0.17278974  0.77084244  0.72738300    -0.17600
H1629       H  0.17009601  0.74469090  0.79962370     0.20400
H1630       H  0.17019377  0.81232572  0.83553774     0.18800
H1631       H  0.16382431  0.79860685  0.92727903     0.18700
H1632       H  0.17182055  0.75830201  0.70752326     0.14600
C1633       C  0.14946634  0.76556811  0.27037700     0.30000
C1634       C  0.14141068  0.77803972  0.30086572    -0.36300
C1635       C  0.14476810  0.77479708  0.34730455     0.16000
C1636       C  0.15554789  0.76043864  0.36265681     0.21800
C1637       C  0.16343993  0.74781867  0.33207855    -0.34400
C1638       C  0.15985112  0.75089111  0.28552815     0.15900
O1639       O  0.14818872  0.76613917  0.22556680    -0.26400
C1640       C  0.15763962  0.75153817  0.21169315     0.05700
C1641       C  0.16517933  0.74140951  0.24740662    -0.31300
O1642       O  0.15725090  0.76032770  0.40757360    -0.23200
C1643       C  0.14726050  0.77464719  0.42098646    -0.03100
C1644       C  0.13909887  0.78413351  0.38503821    -0.17600
H1645       H  0.13312565  0.78947263  0.28915752     0.20400
H1646       H  0.17178693  0.73643318  0.34377354     0.18800
H1647       H  0.17353206  0.72912258  0.24548525     0.18700
H1648       H  0.13053043  0.79628801  0.38652725     0.14600
C1649       C  0.41827990  0.81250769  0.94222810     0.30000
C1650       C  0.43568484  0.81962358  0.93125170    -0.36300
C1651       C  0.43612507  0.83811229  0.91758239     0.16000
C1652       C  0.42057429  0.84897197  0.91545214     0.21800
C1653       C  0.40318404  0.84185141  0.92643700    -0.34400
C1654       C  0.40269648  0.82328973  0.93933714     0.15900
O1655       O  0.41453761  0.79538584  0.95399313    -0.26400
C1656       C  0.39628829  0.79515574  0.95792121     0.05700
C1657       C  0.38821639  0.81212796  0.94924359    -0.31300
O1658       O  0.42399473  0.86552486  0.89898996    -0.23200
C1659       C  0.44196807  0.86526123  0.89031596    -0.03100
C1660       C  0.45020206  0.84854673  0.90123754    -0.17600
H1661       H  0.44794638  0.81118547  0.93194647     0.20400
H1662       H  0.39080416  0.85003792  0.92357160     0.18800
H1663       H  0.37375468  0.81567918  0.95000498     0.18700
H1664       H  0.46431645  0.84437277  0.89552110     0.14600
C1665       C  0.34348450  0.74783400  0.76724464     0.30000
C1666       C  0.34501474  0.74188356  0.72162861    -0.36300
C1667       C  0.34810263  0.75571633  0.68904044     0.16000
C1668       C  0.34993492  0.77403339  0.70076189     0.21800
C1669       C  0.34799433  0.77998903  0.74598817    -0.34400
C1670       C  0.34451825  0.76626795  0.77824580     0.15900
O1671       O  0.34215949  0.73730008  0.80392249    -0.26400
C1672       C  0.34193826  0.74928410  0.83840905     0.05700
C1673       C  0.34316932  0.76744983  0.82433429    -0.31300
O1674       O  0.35387348  0.78451464  0.66545791    -0.23200
C1675       C  0.35419130  0.77283362  0.63058871    -0.03100
C1676       C  0.35062959  0.75475204  0.64287958    -0.17600
H1677       H  0.34431653  0.72749672  0.71235529     0.20400
H1678       H  0.34949657  0.79429184  0.75552122     0.18800
H1679       H  0.34441957  0.77966431  0.84534183     0.18700
H1680       H  0.35046288  0.74268460  0.62116206     0.14600
C1681       C  0.36210614  0.76651990  0.19916978     0.30000
C1682       C  0.36522420  0.76131512  0.24442996    -0.36300
C1683       C  0.35848561  0.77328532  0.27767048     0.16000
C1684       C  0.34950431  0.78950305  0.26749985     0.21800
C1685       C  0.34616759  0.79465608  0.22186835    -0.34400
C1686       C  0.35274393  0.78246291  0.18832343     0.15900
O1687       O  0.36737626  0.75726241  0.16293077    -0.26400
C1688       C  0.36122664  0.76723528  0.12821647     0.05700
C1689       C  0.35190973  0.78306354  0.14170451    -0.31300
O1690       O  0.34503114  0.79883698  0.30469676    -0.23200
C1691       C  0.35103059  0.78817334  0.33857761    -0.03100
C1692       C  0.35944381  0.77214968  0.32371326    -0.17600
H1693       H  0.37245494  0.74878843  0.25312597     0.20400
H1694       H  0.33904999  0.80724511  0.21316939     0.18800
H1695       H  0.34559946  0.79346232  0.12033642     0.18700
H1696       H  0.36582475  0.76144700  0.34401480     0.14600
C1697       C  0.24056756  0.73637561  0.06043719     0.30000
C1698       C  0.25739035  0.74520506  0.06759103    -0.36300
C1699       C  0.27265639  0.73718853  0.04650319     0.16000
C1700       C  0.27162025  0.72153091  0.01991388     0.21800
C1701       C  0.25467589  0.71250536  0.01311655    -0.34400
C1702       C  0.23926926  0.72053889  0.03454232     0.15900
O1703       O  0.22453354  0.74221961  0.07522660    -0.26400
C1704       C  0.21265046  0.72991682  0.05930334     0.05700
C1705       C  0.22098493  0.71601364  0.03376033    -0.31300
O1706       O  0.28764762  0.71728656  0.00102866    -0.23200
C1707       C  0.29892574  0.73046090  0.01595544    -0.03100
C1708       C  0.29029789  0.74307549  0.04453836    -0.17600
H1709       H  0.25842235  0.75777540  0.08726712     0.20400
H1710       H  0.25350811  0.70039092  0.99176704     0.18800
H1711       H  0.21446381  0.70472808  0.01583446     0.18700
H1712       H  0.29603999  0.75532997  0.05999077     0.14600
C1713       C  0.55578210  0.66935681  0.34251983     0.30000
C1714       C  0.57475994  0.66806305  0.35096015    -0.36300
C1715       C  0.58271001  0.68288957  0.37447291     0.16000
C1716       C  0.57259859  0.69783045  0.38916977     0.21800
C1717       C  0.55372319  0.69932642  0.37973796    -0.34400
C1718       C  0.54581670  0.68461118  0.35573772     0.15900
O1719       O  0.54531772  0.65646887  0.32440123    -0.26400
C1720       C  0.52847664  0.66364878  0.32534818     0.05700
C1721       C  0.52796541  0.68122818  0.34403666    -0.31300
O1722       O  0.58249390  0.70948639  0.41341596    -0.23200
C1723       C  0.59924596  0.70213096  0.41349536    -0.03100
C1724       C  0.60025259  0.68560210  0.38964639    -0.17600
H1725       H  0.58265807  0.65608624  0.34109459     0.20400
H1726       H  0.54565916  0.71091381  0.39147102     0.18800
H1727       H  0.51604531  0.68974500  0.35062444     0.18700
H1728       H  0.61198649  0.67657046  0.38579860     0.14600
C1729       C  0.43536666  0.70369937  0.40626601     0.30000
C1730       C  0.43653397  0.72249981  0.41703605    -0.36300
C1731       C  0.42113886  0.73015205  0.43907658     0.16000
C1732       C  0.40561344  0.72001773  0.44928188     0.21800
C1733       C  0.40457026  0.70119897  0.43917970    -0.34400
C1734       C  0.42001459  0.69351684  0.41769584     0.15900
O1735       O  0.44766068  0.69396238  0.38341510    -0.26400
C1736       C  0.44020624  0.67725968  0.38093238     0.05700
C1737       C  0.42304702  0.67617610  0.40185042    -0.31300
O1738       O  0.39235206  0.73012269  0.46701526    -0.23200
C1739       C  0.39948113  0.74695234  0.46877931    -0.03100
C1740       C  0.41742349  0.74779368  0.45209708    -0.17600
H1741       H  0.44842389  0.73067767  0.40790424     0.20400
H1742       H  0.39237907  0.69318623  0.44662343     0.18800
H1743       H  0.41378253  0.66453655  0.40314050     0.18700
H1744       H  0.42610206  0.75978157  0.44820356     0.14600
C1745       C  0.39781449  0.64728886  0.17826086     0.30000
C1746       C  0.38201558  0.65797712  0.16999332    -0.36300
C1747       C  0.38068313  0.66594082  0.12616404     0.16000
C1748       C  0.39394897  0.66331438  0.09287409     0.21800
C1749       C  0.40921050  0.65205336  0.10039912    -0.34400
C1750       C  0.41063552  0.64432835  0.14406809     0.15900
O1751       O  0.40399545  0.64225404  0.21901202    -0.26400
C1752       C  0.42085962  0.63595331  0.21047053     0.05700
C1753       C  0.42553531  0.63670035  0.16439625    -0.31300
O1754       O  0.39200616  0.67447855  0.05785637    -0.23200
C1755       C  0.37711528  0.68420589  0.06799914    -0.03100
C1756       C  0.36932794  0.67946715  0.10997393    -0.17600
H1757       H  0.37244401  0.66136499  0.19714359     0.20400
H1758       H  0.42019154  0.65092778  0.07545831     0.18800
H1759       H  0.43897814  0.63453864  0.14928847     0.18700
H1760       H  0.35825321  0.68631973  0.12795520     0.14600
C1761       C  0.43608820  0.33928822  0.11613919     0.30000
C1762       C  0.43776409  0.32071269  0.10369585    -0.36300
C1763       C  0.42130677  0.31164701  0.09264988     0.16000
C1764       C  0.40439022  0.32024948  0.09432062     0.21800
C1765       C  0.40276163  0.33884761  0.10607412    -0.34400
C1766       C  0.41920162  0.34796074  0.11651958     0.15900
O1767       O  0.44939015  0.34997809  0.13140626    -0.26400
C1768       C  0.44095816  0.36577732  0.14094220     0.05700
C1769       C  0.42218275  0.36534682  0.13202381    -0.31300
O1770       O  0.39071006  0.30905980  0.08457702    -0.23200
C1771       C  0.39892573  0.29310801  0.07599811    -0.03100
C1772       C  0.41798529  0.29387332  0.08030109    -0.17600
H1773       H  0.45090622  0.31371185  0.10373448     0.20400
H1774       H  0.38953173  0.34564322  0.10789311     0.18800
H1775       H  0.41200960  0.37579222  0.13950452     0.18700
H1776       H  0.42785974  0.28289096  0.07570670     0.14600
C1777       C  0.37983111  0.36130936  0.38844322     0.30000
C1778       C  0.38573853  0.36189585  0.34285448    -0.36300
C1779       C  0.39637659  0.37709705  0.33056339     0.16000
C1780       C  0.40063174  0.39112111  0.36070732     0.21800
C1781       C  0.39402425  0.39090735  0.40604241    -0.34400
C1782       C  0.38360821  0.37543193  0.41870955     0.15900
O1783       O  0.37355883  0.34654478  0.40909264    -0.26400
C1784       C  0.37289879  0.35121424  0.45306477     0.05700
C1785       C  0.37878402  0.36912272  0.46119282    -0.31300
O1786       O  0.41346551  0.40219856  0.34431972    -0.23200
C1787       C  0.41731772  0.39511330  0.30334365    -0.03100
C1788       C  0.40708787  0.37957285  0.29302948    -0.17600
H1789       H  0.38385977  0.35033466  0.31994219     0.20400
H1790       H  0.39824634  0.40113170  0.43088139     0.18800
H1791       H  0.38163180  0.37550371  0.49398157     0.18700
H1792       H  0.40872009  0.37038799  0.26407221     0.14600
C1793       C  0.47237383  0.53545847  0.29154243     0.30000
C1794       C  0.48300390  0.51956451  0.28817580    -0.36300
C1795       C  0.47354061  0.50347141  0.27735929     0.16000
C1796       C  0.45483198  0.50282021  0.26957899     0.21800
C1797       C  0.44401616  0.51888129  0.27357938    -0.34400
C1798       C  0.45355966  0.53517447  0.28506306     0.15900
O1799       O  0.47880203  0.55195690  0.30007741    -0.26400
C1800       C  0.46403808  0.56267990  0.29959694     0.05700
C1801       C  0.44780159  0.55301425  0.29072603    -0.31300
O1802       O  0.44926306  0.48611702  0.25744407    -0.23200
C1803       C  0.46469839  0.47613741  0.25828443    -0.03100
C1804       C  0.48007558  0.48632365  0.27062597    -0.17600
H1805       H  0.49776981  0.51978158  0.29309676     0.20400
H1806       H  0.42932016  0.51874635  0.26757122     0.18800
H1807       H  0.43396480  0.55838268  0.28783558     0.18700
H1808       H  0.49426174  0.48184856  0.27266712     0.14600
C1809       C  0.59228704  0.68938025  0.90935565     0.30000
C1810       C  0.60991818  0.69687655  0.91529089    -0.36300
C1811       C  0.61059937  0.71516399  0.93039768     0.16000
C1812       C  0.59502038  0.72533807  0.93969831     0.21800
C1813       C  0.57735747  0.71787561  0.93349134    -0.34400
C1814       C  0.57667677  0.69963476  0.91781477     0.15900
O1815       O  0.58850982  0.67301108  0.89235716    -0.26400
C1816       C  0.57024211  0.67278434  0.88948376     0.05700
C1817       C  0.56213274  0.68897920  0.90494474    -0.31300
O1818       O  0.59891355  0.74218294  0.95350647    -0.23200
C1819       C  0.61723141  0.74284810  0.95261310    -0.03100
C1820       C  0.62521715  0.72643926  0.93831352    -0.17600
H1821       H  0.62224278  0.68913234  0.90757634     0.20400
H1822       H  0.56502849  0.72584853  0.93951821     0.18800
H1823       H  0.54772300  0.69271972  0.90428039     0.18700
H1824       H  0.63969025  0.72325346  0.93469108     0.14600
C1825       C  0.63007551  0.67373450  0.64621059     0.30000
C1826       C  0.62459216  0.67230025  0.69202334    -0.36300
C1827       C  0.61344241  0.65727485  0.70289748     0.16000
C1828       C  0.60799636  0.64434570  0.67098496     0.21800
C1829       C  0.61410377  0.64540420  0.62519522    -0.34400
C1830       C  0.62530205  0.66058153  0.61419152     0.15900
O1831       O  0.63738943  0.68847006  0.62753111    -0.26400
C1832       C  0.63780363  0.68471417  0.58297216     0.05700
C1833       C  0.63062937  0.66744260  0.57256967    -0.31300
O1834       O  0.59477446  0.63354685  0.68685653    -0.23200
C1835       C  0.59203607  0.63958180  0.72949704    -0.03100
C1836       C  0.60331301  0.65421557  0.74116012    -0.17600
H1837       H  0.62740996  0.68309348  0.71660488     0.20400
H1838       H  0.60916997  0.63600477  0.59917779     0.18800
H1839       H  0.62751485  0.66190192  0.53899554     0.18700
H1840       H  0.60257047  0.66272878  0.77158231     0.14600
C1841       C  0.46194031  0.68238174  0.84831211     0.30000
C1842       C  0.45407368  0.69980013  0.85547032    -0.36300
C1843       C  0.43632661  0.69998973  0.87469937     0.16000
C1844       C  0.42681548  0.68412182  0.88525071     0.21800
C1845       C  0.43462881  0.66674606  0.87795898    -0.34400
C1846       C  0.45246459  0.66657815  0.85957838     0.15900
O1847       O  0.47873683  0.67894417  0.83298947    -0.26400
C1848       C  0.48004776  0.66069686  0.83487901     0.05700
C1849       C  0.46408245  0.65234212  0.85110193    -0.31300
O1850       O  0.41086706  0.68743837  0.90521475    -0.23200
C1851       C  0.41015957  0.70567230  0.90795083    -0.03100
C1852       C  0.42563867  0.71421759  0.88954083    -0.17600
H1853       H  0.46150997  0.71233684  0.84802442     0.20400
H1854       H  0.42753524  0.65422786  0.88743505     0.18800
H1855       H  0.46151107  0.63784716  0.85645132     0.18700
H1856       H  0.42885757  0.72873834  0.88894484     0.14600
C1857       C  0.51381981  0.61099250  0.10497773     0.30000
C1858       C  0.52759984  0.60438030  0.07564683    -0.36300
C1859       C  0.52357045  0.60507831  0.02871335     0.16000
C1860       C  0.50690561  0.61131600  0.01209264     0.21800
C1861       C  0.49320690  0.61800933  0.04131673    -0.34400
C1862       C  0.49746566  0.61785708  0.08799522     0.15900
O1863       O  0.51489459  0.61234750  0.14990995    -0.26400
C1864       C  0.49921454  0.62052751  0.16140890     0.05700
C1865       C  0.48786556  0.62437095  0.12441629    -0.31300
O1866       O  0.50641303  0.61181612  0.96715506    -0.23200
C1867       C  0.52302991  0.60612721  0.95471922    -0.03100
C1868       C  0.53437088  0.60173370  0.99145625    -0.17600
H1869       H  0.54076152  0.59967598  0.08841371     0.20400
H1870       H  0.48043372  0.62363612  0.02839505     0.18800
H1871       H  0.47447428  0.63088639  0.12451514     0.18700
H1872       H  0.54867771  0.59761573  0.99079474     0.14600
C1873       C  0.50258843  0.61790990  0.51386691     0.30000
C1874       C  0.51686583  0.62302409  0.54338986    -0.36300
C1875       C  0.51236472  0.62364138  0.58993170     0.16000
C1876       C  0.49513702  0.61906015  0.60638743     0.21800
C1877       C  0.48081050  0.61405567  0.57678331    -0.34400
C1878       C  0.48520082  0.61382756  0.53007446     0.15900
O1879       O  0.50350085  0.61750430  0.46895488    -0.26400
C1880       C  0.48647264  0.61330643  0.45615454     0.05700
C1881       C  0.47443884  0.61082099  0.49264127    -0.31300
O1882       O  0.49408557  0.62030480  0.65128430    -0.23200
C1883       C  0.51072127  0.62608899  0.66343684    -0.03100
C1884       C  0.52267087  0.62849636  0.62681015    -0.17600
H1885       H  0.53040264  0.62667417  0.53082849     0.20400
H1886       H  0.46713716  0.61089639  0.58923571     0.18800
H1887       H  0.45983614  0.60790889  0.49162949     0.18700
H1888       H  0.53694132  0.63277057  0.62748016     0.14600
C1889       C  0.46424399  0.35401923  0.69214402     0.30000
C1890       C  0.45841555  0.33749830  0.67175204    -0.36300
C1891       C  0.43991450  0.33683308  0.65768634     0.16000
C1892       C  0.42789933  0.35130093  0.66406052     0.21800
C1893       C  0.43370787  0.36775804  0.68448146    -0.34400
C1894       C  0.45222751  0.36852577  0.69781313     0.15900
O1895       O  0.48121190  0.35815761  0.70490205    -0.26400
C1896       C  0.48001781  0.37556797  0.71870500     0.05700
C1897       C  0.46230089  0.38267942  0.71502310    -0.31300
O1898       O  0.41152722  0.34818006  0.64612757    -0.23200
C1899       C  0.41304389  0.33157154  0.62747656    -0.03100
C1900       C  0.43041299  0.32381650  0.63366732    -0.17600
H1901       H  0.46781327  0.32622131  0.66570853     0.20400
H1902       H  0.42457653  0.37941565  0.68818118     0.18800
H1903       H  0.45767280  0.39651414  0.72235728     0.18700
H1904       H  0.43547399  0.31080306  0.62084894     0.14600
C1905       C  0.51186123  0.41879114  0.42967393     0.30000
C1906       C  0.52469719  0.42639785  0.46009598    -0.36300
C1907       C  0.52110844  0.42367080  0.50676282     0.16000
C1908       C  0.50577878  0.41433687  0.52228721     0.21800
C1909       C  0.49302137  0.40660270  0.49190218    -0.34400
C1910       C  0.49676402  0.40910400  0.44528500     0.15900
O1911       O  0.51245271  0.41977710  0.38466038    -0.26400
C1912       C  0.49767726  0.41043348  0.37137936     0.05700
C1913       C  0.48741155  0.40340586  0.40754944    -0.31300
O1914       O  0.50514797  0.41335458  0.56723297    -0.23200
C1915       C  0.52035869  0.42195651  0.58070548    -0.03100
C1916       C  0.53087453  0.42866959  0.54462999    -0.17600
H1917       H  0.53668992  0.43382385  0.44818828     0.20400
H1918       H  0.48109573  0.39906095  0.50378983     0.18800
H1919       H  0.47475104  0.39557710  0.40617331     0.18700
H1920       H  0.54381829  0.43600927  0.54613106     0.14600
C1921       C  0.49970938  0.43524862  0.02314338     0.30000
C1922       C  0.51438171  0.43243676  0.99289199    -0.36300
C1923       C  0.50963902  0.43029031  0.94674638     0.16000
C1924       C  0.49171166  0.43125461  0.93115751     0.21800
C1925       C  0.47700610  0.43406521  0.96148921    -0.34400
C1926       C  0.48172981  0.43587426  0.00785891     0.15900
O1927       O  0.50090935  0.43554567  0.06808757    -0.26400
C1928       C  0.48351036  0.43621791  0.08189160     0.05700
C1929       C  0.47093856  0.43656845  0.04595148    -0.31300
O1930       O  0.49041285  0.42806939  0.88678808    -0.23200
C1931       C  0.50769282  0.42487295  0.87422438    -0.03100
C1932       C  0.52022817  0.42595465  0.90995801    -0.17600
H1933       H  0.52843006  0.43114363  0.00480808     0.20400
H1934       H  0.46284246  0.43405092  0.94999714     0.18800
H1935       H  0.45606855  0.43600501  0.04772297     0.18700
H1936       H  0.53491790  0.42350105  0.90900771     0.14600
C1937       C  0.53644993  0.53661167  0.75415438     0.30000
C1938       C  0.52680355  0.52225011  0.73334474    -0.36300
C1939       C  0.53556831  0.50517963  0.73318906     0.16000
C1940       C  0.55273828  0.50224546  0.75202508     0.21800
C1941       C  0.56248490  0.51675244  0.77291539    -0.34400
C1942       C  0.55363182  0.53397493  0.77323311     0.15900
O1943       O  0.53037093  0.55347931  0.75929369    -0.26400
C1944       C  0.54376178  0.56198684  0.78189437     0.05700
C1945       C  0.55865271  0.55054936  0.79163438    -0.31300
O1946       O  0.55776279  0.48476201  0.74979351    -0.23200
C1947       C  0.54352285  0.47657454  0.72939006    -0.03100
C1948       C  0.52943501  0.48867867  0.71828621    -0.17600
H1949       H  0.51318073  0.52417495  0.71909747     0.20400
H1950       H  0.57581161  0.51468203  0.78864779     0.18800
H1951       H  0.57109127  0.55385160  0.81031091     0.18700
H1952       H  0.51621564  0.48560428  0.70294917     0.14600
C1953       C  0.60837073  0.21608681  0.10428676     0.30000
C1954       C  0.61020613  0.19790343  0.11990094    -0.36300
C1955       C  0.59375302  0.18808858  0.12629907     0.16000
C1956       C  0.57667194  0.19575196  0.11846696     0.21800
C1957       C  0.57486390  0.21379067  0.10200738    -0.34400
C1958       C  0.59130074  0.22353473  0.09519349     0.15900
O1959       O  0.62184995  0.22795150  0.09753719    -0.26400
C1960       C  0.61332651  0.24317979  0.08366268     0.05700
C1961       C  0.59430616  0.24116948  0.08124217    -0.31300
O1962       O  0.56308933  0.18479867  0.13087657    -0.23200
C1963       C  0.57151113  0.16972817  0.14597026    -0.03100
C1964       C  0.59061648  0.17096088  0.14370114    -0.17600
H1965       H  0.62351185  0.19196880  0.12757221     0.20400
H1966       H  0.56152796  0.21998205  0.09616037     0.18800
H1967       H  0.58417616  0.25130631  0.07126108     0.18700
H1968       H  0.60068046  0.16125455  0.15641789     0.14600
C1969       C  0.62690817  0.37024441  0.90976722     0.30000
C1970       C  0.62596821  0.37696465  0.86453680    -0.36300
C1971       C  0.61162899  0.38943547  0.85517274     0.16000
C1972       C  0.59918645  0.39489568  0.88828589     0.21800
C1973       C  0.60046616  0.38864759  0.93353578    -0.34400
C1974       C  0.61457048  0.37611850  0.94266626     0.15900
O1975       O  0.63722722  0.35644903  0.92442049    -0.26400
C1976       C  0.63139528  0.35366385  0.96717967     0.05700
C1977       C  0.61734052  0.36545483  0.98016911    -0.31300
O1978       O  0.58479184  0.40332407  0.87087984    -0.23200
C1979       C  0.58797192  0.40363258  0.82602229    -0.03100
C1980       C  0.60466128  0.39543965  0.81422673    -0.17600
H1981       H  0.63479026  0.37166843  0.83770273     0.20400
H1982       H  0.59010484  0.39199514  0.95887847     0.18800
H1983       H  0.60930609  0.36514271  0.01144834     0.18700
H1984       H  0.60943881  0.39183576  0.78022254     0.14600
C1985       C  0.55633144  0.37271659  0.17922981     0.30000
C1986       C  0.57488588  0.37382222  0.16588721    -0.36300
C1987       C  0.58351292  0.35706744  0.15532807     0.16000
C1988       C  0.57444075  0.34041874  0.15740658     0.21800
C1989       C  0.55604923  0.33929179  0.17165768    -0.34400
C1990       C  0.54748106  0.35598478  0.18245767     0.15900
O1991       O  0.54532089  0.38665230  0.18866236    -0.26400
C1992       C  0.52928927  0.37868062  0.19847948     0.05700
C1993       C  0.52987419  0.35963211  0.19539028    -0.31300
O1994       O  0.58451572  0.32668980  0.14192649    -0.23200
C1995       C  0.60038227  0.33453569  0.13032527    -0.03100
C1996       C  0.60060416  0.35341542  0.13825898    -0.17600
H1997       H  0.58194439  0.38686062  0.16271223     0.20400
H1998       H  0.54874341  0.32633522  0.17286725     0.18800
H1999       H  0.51880501  0.34992585  0.20094245     0.18700
H2000       H  0.61130129  0.36317338  0.12961775     0.14600
C2001       C  0.77062072  0.30013552  0.98528791     0.30000
C2002       C  0.75427669  0.29006121  0.98191803    -0.36300
C2003       C  0.73835829  0.29881815  0.99768142     0.16000
C2004       C  0.73834900  0.31632671  0.01582612     0.21800
C2005       C  0.75481064  0.32656474  0.01873168    -0.34400
C2006       C  0.77087218  0.31777810  0.00266309     0.15900
O2007       O  0.78709530  0.29409707  0.97433188    -0.26400
C2008       C  0.79825458  0.30801874  0.98425645     0.05700
C2009       C  0.78894390  0.32323402  0.00185590    -0.31300
O2010       O  0.72183482  0.32128091  0.03080292    -0.23200
C2011       C  0.71123886  0.30672212  0.02176759    -0.03100
C2012       C  0.72087393  0.29244538  0.00104637    -0.17600
H2013       H  0.75405568  0.27614765  0.96879326     0.20400
H2014       H  0.75514325  0.34024064  0.03334347     0.18800
H2015       H  0.79470079  0.33611367  0.01368447     0.18700
H2016       H  0.71583874  0.27898800  0.99140424     0.14600
C2017       C  0.93546174  0.19809722  0.92364195     0.30000
C2018       C  0.93747319  0.21680958  0.93439740    -0.36300
C2019       C  0.92150733  0.22589888  0.94904771     0.16000
C2020       C  0.90477285  0.21707220  0.95289727     0.21800
C2021       C  0.90281787  0.19831598  0.94276084    -0.34400
C2022       C  0.91876416  0.18923729  0.92809426     0.15900
O2023       O  0.94806928  0.18757207  0.90471135    -0.26400
C2024       C  0.93944990  0.17171217  0.89722174     0.05700
C2025       C  0.92118598  0.17186190  0.91149373    -0.31300
O2026       O  0.89143963  0.22831055  0.96483196    -0.23200
C2027       C  0.89965204  0.24457155  0.96904421    -0.03100
C2028       C  0.91842570  0.24394680  0.95962930    -0.17600
H2029       H  0.95042367  0.22393671  0.92990096     0.20400
H2030       H  0.88962250  0.19144710  0.94463107     0.18800
H2031       H  0.91084973  0.16132041  0.90666046     0.18700
H2032       H  0.92820386  0.25516790  0.95943412     0.14600
C2033       C  0.90541304  0.39157464  0.15928163     0.30000
C2034       C  0.90135578  0.38879694  0.11278227    -0.36300
C2035       C  0.88739631  0.37606368  0.10316434     0.16000
C2036       C  0.87820855  0.36648101  0.13704707     0.21800
C2037       C  0.88154154  0.37002968  0.18361847    -0.34400
C2038       C  0.89544898  0.38284848  0.19323165     0.15900
O2039       O  0.92008093  0.40009352  0.17546915    -0.26400
C2040       C  0.91920954  0.39724135  0.22045411     0.05700
C2041       C  0.90416956  0.38665875  0.23345962    -0.31300
O2042       O  0.86920312  0.35215715  0.12067051    -0.23200
C2043       C  0.87215567  0.35298022  0.07569507    -0.03100
C2044       C  0.88310745  0.36772729  0.06283610    -0.17600
H2045       H  0.90968178  0.39480700  0.08590257     0.20400
H2046       H  0.87507416  0.36201511  0.21041255     0.18800
H2047       H  0.90130025  0.38092018  0.26695478     0.18700
H2048       H  0.88936796  0.37013190  0.02967235     0.14600
C2049       C  0.95580330  0.36199949  0.83513443     0.30000
C2050       C  0.93654440  0.36134233  0.83760487    -0.36300
C2051       C  0.92917051  0.34816895  0.86743450     0.16000
C2052       C  0.94000387  0.33654315  0.89328314     0.21800
C2053       C  0.95924968  0.33683986  0.88980793    -0.34400
C2054       C  0.96661972  0.34989448  0.85965050     0.15900
O2055       O  0.96560364  0.37440573  0.81310839    -0.26400
C2056       C  0.98290132  0.36994689  0.82293966     0.05700
C2057       C  0.98440358  0.35469214  0.85130461    -0.31300
O2058       O  0.93027131  0.32630559  0.92156536    -0.23200
C2059       C  0.91296682  0.33125826  0.91327058    -0.03100
C2060       C  0.91143060  0.34474027  0.87972217    -0.17600
H2061       H  0.92794409  0.37089911  0.81897170     0.20400
H2062       H  0.96788212  0.32797264  0.91037440     0.18800
H2063       H  0.99673104  0.34888147  0.86622789     0.18700
H2064       H  0.89911033  0.35151359  0.86755504     0.14600
C2065       C  0.66514312  0.27042693  0.34122391     0.30000
C2066       C  0.67299410  0.26521193  0.29933075    -0.36300
C2067       C  0.67080777  0.27769862  0.26327886     0.16000
C2068       C  0.66169915  0.29423190  0.26836870     0.21800
C2069       C  0.65374367  0.29937347  0.31011401    -0.34400
C2070       C  0.65571302  0.28680559  0.34593250     0.15900
O2071       O  0.66501055  0.26063318  0.37907446    -0.26400
C2072       C  0.65528901  0.27086064  0.40795143     0.05700
C2073       C  0.64899014  0.28719071  0.38934630    -0.31300
O2074       O  0.66010745  0.30320463  0.22955413    -0.23200
C2075       C  0.66815783  0.29226597  0.19911818    -0.03100
C2076       C  0.67515600  0.27620391  0.21807729    -0.17600
H2077       H  0.67984915  0.25212920  0.29485199     0.20400
H2078       H  0.64604095  0.31201088  0.31394879     0.18800
H2079       H  0.64059563  0.29766670  0.40539397     0.18700
H2080       H  0.68139205  0.26463581  0.20064870     0.14600
C2081       C  0.65730692  0.24907120  0.77024071     0.30000
C2082       C  0.65734186  0.24248396  0.81560409    -0.36300
C2083       C  0.65267105  0.25535151  0.84970132     0.16000
C2084       C  0.64802880  0.27330457  0.83961852     0.21800
C2085       C  0.64830279  0.27991763  0.79471506    -0.34400
C2086       C  0.65319311  0.26720602  0.76096915     0.15900
O2087       O  0.66043022  0.23944772  0.73246707    -0.26400
C2088       C  0.65845315  0.25175781  0.69897604     0.05700
C2089       C  0.65410172  0.26921383  0.71496779    -0.31300
O2090       O  0.64379967  0.28295281  0.87621320    -0.23200
C2091       C  0.64601988  0.27118297  0.91045885    -0.03100
C2092       C  0.65158751  0.25378594  0.89624862    -0.17600
H2093       H  0.66061977  0.22834923  0.82370396     0.20400
H2094       H  0.64481155  0.29400336  0.78659396     0.18800
H2095       H  0.65122112  0.28148930  0.69527713     0.18700
H2096       H  0.65440469  0.24182815  0.91714932     0.14600
C2097       C  0.62897425  0.17911814  0.38047158     0.30000
C2098       C  0.62195503  0.17740830  0.33599344    -0.36300
C2099       C  0.61254362  0.16109223  0.32625683     0.16000
C2100       C  0.61018167  0.14718187  0.35789906     0.21800
C2101       C  0.61790771  0.14859602  0.40207358    -0.34400
C2102       C  0.62732014  0.16506590  0.41200309     0.15900
O2103       O  0.63486959  0.19454091  0.39902457    -0.26400
C2104       C  0.63744815  0.19039581  0.44295230     0.05700
C2105       C  0.63322546  0.17214097  0.45293224    -0.31300
O2106       O  0.59798891  0.13478715  0.34409771    -0.23200
C2107       C  0.59276115  0.14084590  0.30298977    -0.03100
C2108       C  0.60146878  0.15704240  0.29029232    -0.17600
H2109       H  0.62229579  0.18873941  0.31197636     0.20400
H2110       H  0.61535906  0.13832409  0.42814056     0.18800
H2111       H  0.63226921  0.16579123  0.48641154     0.18700
H2112       H  0.59842287  0.16567991  0.26102731     0.14600
C2113       C  0.57069683  0.19887641  0.63193816     0.30000
C2114       C  0.55166582  0.19869600  0.63973687    -0.36300
C2115       C  0.54516508  0.18447707  0.66777970     0.16000
C2116       C  0.55655907  0.17114666  0.68593863     0.21800
C2117       C  0.57557317  0.17147519  0.67863768    -0.34400
C2118       C  0.58209950  0.18586311  0.65141391     0.15900
O2119       O  0.57977390  0.21073777  0.60642696    -0.26400
C2120       C  0.59718631  0.20536646  0.61041001     0.05700
C2121       C  0.59946475  0.18999457  0.63794573    -0.31300
O2122       O  0.54745616  0.15844004  0.70856335    -0.23200
C2123       C  0.53006183  0.16388666  0.70564951    -0.03100
C2124       C  0.52777098  0.18005964  0.68096939    -0.17600
H2125       H  0.54257291  0.20882051  0.62474517     0.20400
H2126       H  0.58462441  0.16112047  0.69280526     0.18800
H2127       H  0.61205370  0.18274192  0.64607591     0.18700
H2128       H  0.51507178  0.18696105  0.67208040     0.14600
C2129       C  0.59052744  0.30916632  0.61029556     0.30000
C2130       C  0.57580654  0.31465790  0.63836145    -0.36300
C2131       C  0.57427014  0.33361787  0.64653692     0.16000
C2132       C  0.58624157  0.34631400  0.62788649     0.21800
C2133       C  0.60108245  0.34081008  0.60041401    -0.34400
C2134       C  0.60273837  0.32187565  0.59270137     0.15900
O2135       O  0.59487710  0.29212911  0.59900353    -0.26400
C2136       C  0.61016919  0.29400252  0.57428434     0.05700
C2137       C  0.61570478  0.31218458  0.56940710    -0.31300
O2138       O  0.58224618  0.36332436  0.63987266    -0.23200
C2139       C  0.56761617  0.36153135  0.66692438    -0.03100
C2140       C  0.56211159  0.34334505  0.67257028    -0.17600
H2141       H  0.56634388  0.30482923  0.65320136     0.20400
H2142       H  0.61078782  0.35060281  0.58641027     0.18800
H2143       H  0.62772561  0.31744303  0.55182536     0.18700
H2144       H  0.55084980  0.33809167  0.69303194     0.14600
C2145       C  0.84621929  0.25525563  0.18194851     0.30000
C2146       C  0.84305439  0.24043492  0.21162649    -0.36300
C2147       C  0.84073989  0.24494480  0.25799139     0.16000
C2148       C  0.84118076  0.26284419  0.27372471     0.21800
C2149       C  0.84428041  0.27763723  0.24412359    -0.34400
C2150       C  0.84700114  0.27309326  0.19808048     0.15900
O2151       O  0.84967203  0.25417448  0.13769079    -0.26400
C2152       C  0.85289905  0.27149625  0.12584183     0.05700
C2153       C  0.85156286  0.28385671  0.16185072    -0.31300
O2154       O  0.84048387  0.26386513  0.31860662    -0.23200
C2155       C  0.83976040  0.24644091  0.33201784    -0.03100
C2156       C  0.83970661  0.23400311  0.29581080    -0.17600
H2157       H  0.84316455  0.22635006  0.19970309     0.20400
H2158       H  0.84537440  0.29162163  0.25650515     0.18800
H2159       H  0.85373632  0.29857376  0.16130112     0.18700
H2160       H  0.84026776  0.21915476  0.29728448     0.14600
C2161       C  0.85027294  0.28819844  0.76191976     0.30000
C2162       C  0.84656462  0.29351865  0.71657684    -0.36300
C2163       C  0.85230764  0.28113872  0.68253495     0.16000
C2164       C  0.86135435  0.26494196  0.69268923     0.21800
C2165       C  0.86485530  0.25958950  0.73764716    -0.34400
C2166       C  0.85886962  0.27170864  0.77138896     0.15900
O2167       O  0.84621394  0.29745040  0.79949904    -0.26400
C2168       C  0.85207131  0.28645859  0.83289416     0.05700
C2169       C  0.86004647  0.27032948  0.81736563    -0.31300
O2170       O  0.86596495  0.25559647  0.65610602    -0.23200
C2171       C  0.85961894  0.26572119  0.62190868    -0.03100
C2172       C  0.85084730  0.28175295  0.63598212    -0.17600
H2173       H  0.83968066  0.30629502  0.70846945     0.20400
H2174       H  0.87174419  0.24681135  0.74574944     0.18800
H2175       H  0.86609430  0.25929928  0.83719305     0.18700
H2176       H  0.84464117  0.29234292  0.61502866     0.14600
C2177       C  0.73720554  0.22053028  0.53061128     0.30000
C2178       C  0.75206217  0.20949597  0.51623146    -0.36300
C2179       C  0.76948618  0.21797947  0.51642979     0.16000
C2180       C  0.77192703  0.23598987  0.53004722     0.21800
C2181       C  0.75725159  0.24687661  0.54458167    -0.34400
C2182       C  0.74001058  0.23849403  0.54409272     0.15900
O2183       O  0.71957856  0.21591698  0.53149738    -0.26400
C2184       C  0.71121505  0.23123397  0.54551373     0.05700
C2185       C  0.72330574  0.24562037  0.55385629    -0.31300
O2186       O  0.78890177  0.24169197  0.52497850    -0.23200
C2187       C  0.79770327  0.22724974  0.50793148    -0.03100
C2188       C  0.78638836  0.21195613  0.50204491    -0.17600
H2189       H  0.75011687  0.19550186  0.50460915     0.20400
H2190       H  0.75908757  0.26111487  0.55431483     0.18800
H2191       H  0.72017623  0.25948163  0.56486053     0.18700
H2192       H  0.78987627  0.19876770  0.48723175     0.14600
C2193       C  0.87916683  0.17423792  0.64276149     0.30000
C2194       C  0.88415096  0.17322931  0.68909510    -0.36300
C2195       C  0.89478454  0.15802831  0.70187118     0.16000
C2196       C  0.90011912  0.14454198  0.67130657     0.21800
C2197       C  0.89446239  0.14517251  0.62516098    -0.34400
C2198       C  0.88386025  0.16050453  0.61223053     0.15900
O2199       O  0.87247559  0.18890723  0.62219375    -0.26400
C2200       C  0.87238209  0.18445453  0.57795650     0.05700
C2201       C  0.87917895  0.16687968  0.56970457    -0.31300
O2202       O  0.91291984  0.13360595  0.68859307    -0.23200
C2203       C  0.91557201  0.14010123  0.73081734    -0.03100
C2204       C  0.90459435  0.15517975  0.74083096    -0.17600
H2205       H  0.88141301  0.18440698  0.71263516     0.20400
H2206       H  0.89936772  0.13530520  0.60021003     0.18800
H2207       H  0.88236395  0.16070070  0.53687265     0.18700
H2208       H  0.90538915  0.16406805  0.77056176     0.14600
C2209       C  0.92400937  0.18348606  0.36306245     0.30000
C2210       C  0.93043263  0.16691637  0.34438703    -0.36300
C2211       C  0.94918453  0.16638620  0.33302388     0.16000
C2212       C  0.96079976  0.18122891  0.33877165     0.21800
C2213       C  0.95435152  0.19784062  0.35708675    -0.34400
C2214       C  0.93567583  0.19826601  0.36919983     0.15900
O2215       O  0.90747557  0.18640109  0.38039867    -0.26400
C2216       C  0.90862905  0.20320788  0.39817223     0.05700
C2217       C  0.92582130  0.21125978  0.39196660    -0.31300
O2218       O  0.97804085  0.17734317  0.32835666    -0.23200
C2219       C  0.97746309  0.15974998  0.31605073    -0.03100
C2220       C  0.95987601  0.15223761  0.31830968    -0.17600
H2221       H  0.92162777  0.15499205  0.34095614     0.20400
H2222       H  0.96344238  0.20935184  0.36339055     0.18800
H2223       H  0.93065297  0.22436724  0.40476138     0.18700
H2224       H  0.95570644  0.13821284  0.31152037     0.14600
C2225       C  0.90257104  0.31826421  0.43437118     0.30000
C2226       C  0.90155241  0.33722394  0.42607159    -0.36300
C2227       C  0.91816592  0.34589679  0.41473455     0.16000
C2228       C  0.93459951  0.33648853  0.41120578     0.21800
C2229       C  0.93568190  0.31760643  0.42044931    -0.34400
C2230       C  0.91909914  0.30896820  0.43215245     0.15900
O2231       O  0.88867481  0.30735918  0.44444015    -0.26400
C2232       C  0.89641733  0.29089650  0.44917286     0.05700
C2233       C  0.91533322  0.29106488  0.44201698    -0.31300
O2234       O  0.94796062  0.34680647  0.39482957    -0.23200
C2235       C  0.94008036  0.36310788  0.38845492    -0.03100
C2236       C  0.92160520  0.36342384  0.40082747    -0.17600
H2237       H  0.88862712  0.34460412  0.42719336     0.20400
H2238       H  0.94845405  0.31006236  0.41727427     0.18800
H2239       H  0.92486884  0.27966561  0.44378443     0.18700
H2240       H  0.91177432  0.37443107  0.39604729     0.14600
loop_ 
_geom_bond_atom_site_label_1 
_geom_bond_atom_site_label_2 
_geom_bond_distance 
_geom_bond_site_symmetry_2 
_ccdc_geom_bond_type 
Fe1          O17   2.053       .  S
Fe1           O7   2.042       .  S
Fe1          O14   2.052       .  S
Fe1           O6   2.035       .  S
Fe1          O12   1.982       .  S
Fe2           O5   2.053       .  S
Fe2           O9   2.071       .  S
Fe2          O13   2.048       .  S
Fe2          O18   2.064       .  S
Fe2          O12   1.967       .  S
Fe3          O21   2.083       .  S
Fe3           O8   2.081       .  S
Fe3          O15   2.076       .  S
Fe3           O4   2.083       .  S
Fe3          O12   1.996       .  S
O4           C11   1.269       .  A
O5           C19   1.267       .  A
O6           C11   1.262       .  A
O7           C10   1.266       .  A
O8           C20   1.270       .  A
O9           C22   1.267       .  A
C10          O15   1.272       .  A
C10        C2155   1.461       .  S
C11        C2187   1.466       .  S
O13          C16   1.266       .  A
O14          C16   1.265       .  A
C16        C2171   1.451       .  S
O17          C22   1.263       .  A
O18          C20   1.268       .  A
C19          O21   1.271       .  A
C19        C2216   1.471       .  S
C20        C2200   1.470       .  S
C22        C2232   1.469       .  S
Fe23         O39   2.074       .  S
Fe23         O29   2.036       .  S
Fe23         O36   2.043       .  S
Fe23         O28   2.051       .  S
Fe23         O34   1.951       .  S
Fe24         O27   2.058       .  S
Fe24         O31   2.067       .  S
Fe24         O35   2.077       .  S
Fe24         O40   2.062       .  S
Fe24         O34   1.952       .  S
Fe25         O43   2.049       .  S
Fe25         O30   2.099       .  S
Fe25         O37   2.112       .  S
Fe25         O26   2.075       .  S
Fe25         O34   1.963       .  S
O26          C33   1.266       .  A
O27          C41   1.265       .  A
O28          C33   1.264       .  A
O29          C32   1.270       .  A
O30          C42   1.277       .  A
O31          C44   1.265       .  A
C32          O37   1.281       .  A
C32        C2088   1.472       .  S
C33        C2184   1.470       .  S
O35          C38   1.271       .  A
O36          C38   1.266       .  A
C38        C2072   1.448       .  S
O39          C44   1.267       .  A
O40          C42   1.272       .  A
C41          O43   1.266       .  A
C41        C2120   1.459       .  S
C42        C2104   1.474       .  S
C44        C2136   1.470       .  S
Fe45         O61   2.046   1_556  S
Fe45         O51   2.063       .  S
Fe45         O58   2.058       .  S
Fe45         O50   2.031       .  S
Fe45         O56   1.955       .  S
Fe46         O49   2.062       .  S
Fe46         O53   2.074       .  S
Fe46         O57   2.079   1_554  S
Fe46         O62   2.068   1_554  S
Fe46         O56   1.955   1_554  S
Fe47         O65   2.071   1_556  S
Fe47         O52   2.066       .  S
Fe47         O59   2.081       .  S
Fe47         O48   2.083       .  S
Fe47         O56   1.970       .  S
O48          C55   1.272       .  A
O49          C63   1.269       .  A
O50          C55   1.267       .  A
O51          C54   1.266       .  A
O52          C64   1.270       .  A
O53          C66   1.273       .  A
C54          O59   1.269       .  A
C54        C2008   1.475       .  S
C55        C2168   1.456       .  S
O57          C60   1.267       .  A
O58          C60   1.263       .  A
C60        C2027   1.472       .  S
O61          C66   1.268       .  A
O62          C64   1.269       .  A
C63          O65   1.270       .  A
C63        C2043   1.462       .  S
C64        C2059   1.468       .  S
C66        C2152   1.452       .  S
Fe67         O83   2.080   1_554  S
Fe67         O73   2.050       .  S
Fe67         O80   2.056       .  S
Fe67         O72   2.076       .  S
Fe67         O78   1.959       .  S
Fe68         O71   2.082       .  S
Fe68         O75   2.053   1_554  S
Fe68         O79   2.084       .  S
Fe68         O84   2.057       .  S
Fe68         O78   1.949       .  S
Fe69         O87   2.067       .  S
Fe69         O74   2.101       .  S
Fe69         O81   2.096       .  S
Fe69         O70   2.047       .  S
Fe69         O78   1.963       .  S
O70          C77   1.270       .  A
O71          C85   1.271   1_554  A
O72          C77   1.274       .  A
O73          C76   1.265       .  A
O74          C86   1.276       .  A
O75          C88   1.272       .  A
C76          O81   1.271       .  A
C76        C2011   1.481       .  S
C77        C2075   1.458       .  S
O79          C82   1.269       .  A
O80          C82   1.263       .  A
C82        C1960   1.476       .  S
O83          C88   1.274       .  A
O84          C86   1.269       .  A
C85          O87   1.268   1_556  A
C85        C1976   1.466       .  S
C86        C1995   1.472       .  S
C88        C2091   1.459       .  S
Fe89        O105   2.048       .  S
Fe89         O95   2.058       .  S
Fe89        O102   2.065       .  S
Fe89         O94   2.035       .  S
Fe89        O100   1.959       .  S
Fe90         O93   2.051       .  S
Fe90         O97   2.080       .  S
Fe90        O101   2.073       .  S
Fe90        O106   2.072       .  S
Fe90        O100   1.945       .  S
Fe91        O109   2.094       .  S
Fe91         O96   2.068       .  S
Fe91        O103   2.082       .  S
Fe91         O92   2.102       .  S
Fe91        O100   1.968       .  S
O92          C99   1.278       .  A
O93         C107   1.267       .  A
O94          C99   1.267       .  A
O95          C98   1.266       .  A
O96         C108   1.271       .  A
O97         C110   1.274       .  A
C98         O103   1.269       .  A
C98        C1947   1.473       .  S
C99        C1915   1.461       .  S
O101        C104   1.266       .  A
O102        C104   1.265       .  A
C104       C1896   1.474       .  S
O105        C110   1.268       .  A
O106        C108   1.271       .  A
C107        O109   1.274       .  A
C107       C1979   1.469       .  S
C108       C2139   1.471       .  S
C110       C1931   1.455       .  S
Fe111       O127   2.064       .  S
Fe111       O117   2.045       .  S
Fe111       O124   2.047       .  S
Fe111       O116   2.057       .  S
Fe111       O122   1.958       .  S
Fe112       O115   2.078       .  S
Fe112       O119   2.056       .  S
Fe112       O123   2.090       .  S
Fe112       O128   2.054       .  S
Fe112       O122   1.955       .  S
Fe113       O131   2.070       .  S
Fe113       O118   2.097       .  S
Fe113       O125   2.085       .  S
Fe113       O114   2.062       .  S
Fe113       O122   1.974       .  S
O114        C121   1.272       .  A
O115        C129   1.272       .  A
O116        C121   1.271       .  A
O117        C120   1.263       .  A
O118        C130   1.274       .  A
O119        C132   1.271       .  A
C120        O125   1.269       .  A
C120       C1944   1.471       .  S
C121       C1867   1.455       .  S
O123        C126   1.269       .  A
O124        C126   1.263       .  A
C126       C1848   1.478       .  S
O127        C132   1.270       .  A
O128        C130   1.267       .  A
C129        O131   1.269       .  A
C129       C1835   1.466       .  S
C130       C1816   1.470       .  S
C132       C1883   1.455       .  S
Fe133       O149   2.056       .  S
Fe133       O139   2.066       .  S
Fe133       O146   2.076       .  S
Fe133       O138   2.041       .  S
Fe133       O144   1.954       .  S
Fe134       O137   2.042       .  S
Fe134       O141   2.069       .  S
Fe134       O145   2.050       .  S
Fe134       O150   2.073       .  S
Fe134       O144   1.952       .  S
Fe135       O153   2.107       .  S
Fe135       O140   2.064       .  S
Fe135       O147   2.057       .  S
Fe135       O136   2.094       .  S
Fe135       O144   1.968       .  S
O136        C143   1.270       .  A
O137        C151   1.265       .  A
O138        C143   1.264       .  A
O139        C142   1.273       .  A
O140        C152   1.266       .  A
O141        C154   1.265       .  A
C142        O147   1.272       .  A
C142       C1928   1.460       .  S
C143       C1803   1.478       .  S
O145        C148   1.272       .  A
O146        C148   1.275       .  A
C148       C1912   1.459       .  S
O149        C154   1.262       .  A
O150        C152   1.269       .  A
C151        O153   1.278       .  A
C151       C1768   1.468       .  S
C152       C1787   1.461       .  S
C154       C1992   1.471       .  S
Fe155       O171   2.060       .  S
Fe155       O161   2.039       .  S
Fe155       O168   2.048       .  S
Fe155       O160   2.051       .  S
Fe155       O166   1.976       .  S
Fe156       O159   2.060       .  S
Fe156       O163   2.068       .  S
Fe156       O167   2.066       .  S
Fe156       O172   2.049       .  S
Fe156       O166   1.968       .  S
Fe157       O175   2.077       .  S
Fe157       O162   2.076       .  S
Fe157       O169   2.079       .  S
Fe157       O158   2.083       .  S
Fe157       O166   1.990       .  S
O158        C165   1.267       .  A
O159        C173   1.266       .  A
O160        C165   1.264       .  A
O161        C164   1.268       .  A
O162        C174   1.270       .  A
O163        C176   1.265       .  A
C164        O169   1.275       .  A
C164       C1880   1.457       .  S
C165       C1800   1.474       .  S
O167        C170   1.271       .  A
O168        C170   1.267       .  A
C170       C1864   1.455       .  S
O171        C176   1.263       .  A
O172        C174   1.268       .  A
C173        O175   1.271       .  A
C173       C1736   1.472       .  S
C174       C1752   1.463       .  S
C176       C1720   1.470       .  S
Fe177       O193   2.053       .  S
Fe177       O183   2.057       .  S
Fe177       O190   2.063   1_556  S
Fe177       O182   2.042   1_556  S
Fe177       O188   1.957       .  S
Fe178       O181   2.057   1_554  S
Fe178       O185   2.079   1_554  S
Fe178       O189   2.055       .  S
Fe178       O194   2.076       .  S
Fe178       O188   1.949   1_554  S
Fe179       O197   2.100       .  S
Fe179       O184   2.068   1_556  S
Fe179       O191   2.062       .  S
Fe179       O180   2.092       .  S
Fe179       O188   1.968       .  S
O180        C187   1.270   1_556  A
O181        C195   1.269       .  A
O182        C187   1.264       .  A
O183        C186   1.271       .  A
O184        C196   1.267       .  A
O185        C198   1.268       .  A
C186        O191   1.271       .  A
C186       C1672   1.460       .  S
C187       C1707   1.473       .  S
O189        C192   1.271       .  A
O190        C192   1.269       .  A
C192       C1688   1.455       .  S
O193        C198   1.265       .  A
O194        C196   1.270       .  A
C195        O197   1.276       .  A
C195       C1851   1.472       .  S
C196       C1755   1.463       .  S
C198       C1656   1.471       .  S
Fe199       O215   2.070       .  S
Fe199       O205   2.024       .  S
Fe199       O212   2.035   1_554  S
Fe199       O204   2.067       .  S
Fe199       O210   1.958       .  S
Fe200       O203   2.080       .  S
Fe200       O207   2.053       .  S
Fe200       O211   2.085   1_554  S
Fe200       O216   2.045   1_554  S
Fe200       O210   1.940       .  S
Fe201       O219   2.058       .  S
Fe201       O206   2.091       .  S
Fe201       O213   2.109       .  S
Fe201       O202   2.072       .  S
Fe201       O210   1.960       .  S
O202        C209   1.266       .  A
O203        C217   1.273       .  A
O204        C209   1.266       .  A
O205        C208   1.266       .  A
O206        C218   1.273   1_554  A
O207        C220   1.262       .  A
C208        O213   1.280       .  A
C208       C1640   1.458       .  S
C209       C1704   1.468       .  S
O211        C214   1.277       .  A
O212        C214   1.268       .  A
C214       C1624   1.448       .  S
O215        C220   1.263       .  A
O216        C218   1.265       .  A
C217        O219   1.269       .  A
C217       C1608   1.468       .  S
C218       C1592   1.467       .  S
C220       C1576   1.465       .  S
Fe221       O237   2.041       .  S
Fe221       O227   2.062       .  S
Fe221       O234   2.071       .  S
Fe221       O226   2.024       .  S
Fe221       O232   1.960       .  S
Fe222       O225   2.051       .  S
Fe222       O229   2.076       .  S
Fe222       O233   2.068       .  S
Fe222       O238   2.061       .  S
Fe222       O232   1.950       .  S
Fe223       O241   2.087       .  S
Fe223       O228   2.072       .  S
Fe223       O235   2.083       .  S
Fe223       O224   2.092       .  S
Fe223       O232   1.977       .  S
O224        C231   1.275       .  A
O225        C239   1.268       .  A
O226        C231   1.267       .  A
O227        C230   1.267       .  A
O228        C240   1.269       .  A
O229        C242   1.273       .  A
C230        O235   1.268       .  A
C230       C1560   1.477       .  S
C231       C1691   1.457       .  S
O233        C236   1.265       .  A
O234        C236   1.265       .  A
C236       C1739   1.473       .  S
O237        C242   1.268       .  A
O238        C240   1.269       .  A
C239        O241   1.273       .  A
C239       C1528   1.465       .  S
C240       C1547   1.470       .  S
C242       C1675   1.451       .  S
Fe243       O259   2.067       .  S
Fe243       O249   2.050       .  S
Fe243       O256   2.065       .  S
Fe243       O248   2.063       .  S
Fe243       O254   1.968       .  S
Fe244       O247   2.063       .  S
Fe244       O251   2.052       .  S
Fe244       O255   2.065       .  S
Fe244       O260   2.046       .  S
Fe244       O254   1.963       .  S
Fe245       O263   2.062       .  S
Fe245       O250   2.100       .  S
Fe245       O257   2.088       .  S
Fe245       O246   2.059       .  S
Fe245       O254   1.979       .  S
O246        C253   1.272       .  A
O247        C261   1.268       .  A
O248        C253   1.273       .  A
O249        C252   1.264       .  A
O250        C262   1.275       .  A
O251        C264   1.269       .  A
C252        O257   1.268       .  A
C252       C1563   1.475       .  S
C253       C1627   1.460       .  S
O255        C258   1.266       .  A
O256        C258   1.264       .  A
C258       C1515   1.474       .  S
O259        C264   1.271       .  A
O260        C262   1.265       .  A
C261        O263   1.267       .  A
C261       C1480   1.456       .  S
C262       C1496   1.472       .  S
C264       C1643   1.459       .  S
Fe265       O281   2.071   1_455  S
Fe265       O271   2.017       .  S
Fe265       O278   2.026       .  S
Fe265       O270   2.064       .  S
Fe265       O276   1.962       .  S
Fe266       O269   2.067       .  S
Fe266       O273   2.058       .  S
Fe266       O277   2.070       .  S
Fe266       O282   2.056       .  S
Fe266       O276   1.947       .  S
Fe267       O285   2.078       .  S
Fe267       O272   2.088       .  S
Fe267       O279   2.091       .  S
Fe267       O268   2.088       .  S
Fe267       O276   1.967       .  S
O268        C275   1.270       .  A
O269        C283   1.269       .  A
O270        C275   1.269       .  A
O271        C274   1.264       .  A
O272        C284   1.272       .  A
O273        C286   1.264   1_455  A
C274        O279   1.274       .  A
C274       C1403   1.452       .  S
C275       C1435   1.481       .  S
O277        C280   1.272       .  A
O278        C280   1.264       .  A
C280       C1419   1.443       .  S
O281        C286   1.265       .  A
O282        C284   1.268       .  A
C283        O285   1.272       .  A
C283       C1451   1.473       .  S
C284       C1464   1.466       .  S
C286       C2056   1.463       .  S
Fe287       O303   2.058   1_455  S
Fe287       O293   2.048       .  S
Fe287       O300   2.059       .  S
Fe287       O292   2.053       .  S
Fe287       O298   1.969       .  S
Fe288       O291   2.058       .  S
Fe288       O295   2.073       .  S
Fe288       O299   2.060       .  S
Fe288       O304   2.063       .  S
Fe288       O298   1.961       .  S
Fe289       O307   2.097       .  S
Fe289       O294   2.079       .  S
Fe289       O301   2.073       .  S
Fe289       O290   2.096       .  S
Fe289       O298   1.975       .  S
O290        C297   1.271       .  A
O291        C305   1.269       .  A
O292        C297   1.265       .  A
O293        C296   1.269       .  A
O294        C306   1.270       .  A
O295        C308   1.266   1_455  A
C296        O301   1.273       .  A
C296       C1368   1.461       .  S
C297       C1432   1.480       .  S
O299        C302   1.271       .  A
O300        C302   1.269       .  A
C302       C1387   1.455       .  S
O303        C308   1.263       .  A
O304        C306   1.268       .  A
C305        O307   1.275       .  A
C305       C1512   1.474       .  S
C306       C1595   1.466       .  S
C308       C1355   1.473       .  S
Fe309       O325   2.050   1_655  S
Fe309       O315   2.035       .  S
Fe309       O322   2.042   1_655  S
Fe309       O314   2.038       .  S
Fe309       O320   1.971       .  S
Fe310       O313   2.074       .  S
Fe310       O317   2.052       .  S
Fe310       O321   2.076       .  S
Fe310       O326   2.047       .  S
Fe310       O320   1.969       .  S
Fe311       O329   2.068       .  S
Fe311       O316   2.086       .  S
Fe311       O323   2.097       .  S
Fe311       O312   2.066       .  S
Fe311       O320   1.989       .  S
O312        C319   1.272       .  A
O313        C327   1.270       .  A
O314        C319   1.267       .  A
O315        C318   1.262       .  A
O316        C328   1.272       .  A
O317        C330   1.270       .  A
C318        O323   1.269       .  A
C318       C1323   1.481       .  S
C319       C1416   1.450       .  S
O321        C324   1.265   1_655  A
O322        C324   1.260       .  A
C324       C1339   1.471       .  S
O325        C330   1.269   1_455  A
O326        C328   1.265       .  A
C327        O329   1.269       .  A
C327       C2040   1.466       .  S
C328       C2235   1.467       .  S
C330       C1400   1.449   1_655  S
Fe331       O347   2.044   1_655  S
Fe331       O337   2.056       .  S
Fe331       O344   2.055   1_655  S
Fe331       O336   2.038       .  S
Fe331       O342   1.981       .  S
Fe332       O335   2.066       .  S
Fe332       O339   2.078       .  S
Fe332       O343   2.080   1_655  S
Fe332       O348   2.073       .  S
Fe332       O342   1.975       .  S
Fe333       O351   2.068       .  S
Fe333       O338   2.075       .  S
Fe333       O345   2.080       .  S
Fe333       O334   2.073       .  S
Fe333       O342   1.989       .  S
O334        C341   1.272       .  A
O335        C349   1.270       .  A
O336        C341   1.265       .  A
O337        C340   1.266       .  A
O338        C350   1.270       .  A
O339        C352   1.272       .  A
C340        O345   1.267       .  A
C340       C1320   1.475       .  S
C341       C1384   1.456       .  S
O343        C346   1.267       .  A
O344        C346   1.264       .  A
C346       C1611   1.474       .  S
O347        C352   1.266   1_455  A
O348        C350   1.270       .  A
C349        O351   1.268       .  A
C349       C1304   1.463       .  S
C350       C1288   1.476       .  S
C352       C1371   1.458   1_655  S
Fe353       O369   2.049       .  S
Fe353       O359   2.062       .  S
Fe353       O366   2.071       .  S
Fe353       O358   2.047       .  S
Fe353       O364   1.960       .  S
Fe354       O357   2.052       .  S
Fe354       O361   2.068       .  S
Fe354       O365   2.054       .  S
Fe354       O370   2.064       .  S
Fe354       O364   1.949       .  S
Fe355       O373   2.109       .  S
Fe355       O360   2.080       .  S
Fe355       O367   2.071       .  S
Fe355       O356   2.098       .  S
Fe355       O364   1.968       .  S
O356        C363   1.272       .  A
O357        C371   1.268       .  A
O358        C363   1.265       .  A
O359        C362   1.271       .  A
O360        C372   1.270       .  A
O361        C374   1.265       .  A
C362        O367   1.274       .  A
C362       C1243   1.464       .  S
C363       C1272   1.479       .  S
O365        C368   1.271       .  A
O366        C368   1.272       .  A
C368       C1259   1.457       .  S
O369        C374   1.263       .  A
O370        C372   1.268       .  A
C371        O373   1.278       .  A
C371       C1963   1.473       .  S
C372       C2107   1.469       .  S
C374       C1224   1.465       .  S
Fe375       O391   2.057       .  S
Fe375       O381   2.038       .  S
Fe375       O388   2.048       .  S
Fe375       O380   2.048       .  S
Fe375       O386   1.972       .  S
Fe376       O379   2.055       .  S
Fe376       O383   2.068       .  S
Fe376       O387   2.070       .  S
Fe376       O392   2.049       .  S
Fe376       O386   1.963       .  S
Fe377       O395   2.078       .  S
Fe377       O382   2.072       .  S
Fe377       O389   2.083       .  S
Fe377       O378   2.086       .  S
Fe377       O386   1.990       .  S
O378        C385   1.269       .  A
O379        C393   1.268       .  A
O380        C385   1.263       .  A
O381        C384   1.268       .  A
O382        C394   1.268       .  A
O383        C396   1.263       .  A
C384        O389   1.274       .  A
C384       C1211   1.458       .  S
C385       C1275   1.473       .  S
O387        C390   1.273       .  A
O388        C390   1.268       .  A
C390       C1195   1.455       .  S
O391        C396   1.262       .  A
O392        C394   1.267       .  A
C393        O395   1.271       .  A
C393       C1163   1.467       .  S
C394       C1179   1.460       .  S
C396       C1544   1.467       .  S
Fe397       O413   2.047       .  S
Fe397       O403   2.054       .  S
Fe397       O410   2.063       .  S
Fe397       O402   2.034       .  S
Fe397       O408   1.969       .  S
Fe398       O401   2.040       .  S
Fe398       O405   2.078       .  S
Fe398       O409   2.052       .  S
Fe398       O414   2.060       .  S
Fe398       O408   1.959       .  S
Fe399       O417   2.081       .  S
Fe399       O404   2.066       .  S
Fe399       O411   2.081       .  S
Fe399       O400   2.091       .  S
Fe399       O408   1.980       .  S
O400        C407   1.275       .  A
O401        C415   1.266       .  A
O402        C407   1.267       .  A
O403        C406   1.265       .  A
O404        C416   1.269       .  A
O405        C418   1.272       .  A
C406        O411   1.268       .  A
C406       C1144   1.471       .  S
C407       C1256   1.463       .  S
O409        C412   1.262       .  A
O410        C412   1.264       .  A
C412       C2123   1.459       .  S
O413        C418   1.266       .  A
O414        C416   1.266       .  A
C415        O417   1.271       .  A
C415       C1128   1.459       .  S
C416       C1112   1.466       .  S
C418       C1240   1.459       .  S
Fe419       O435   2.071       .  S
Fe419       O425   2.037       .  S
Fe419       O432   2.040       .  S
Fe419       O424   2.060       .  S
Fe419       O430   1.962       .  S
Fe420       O423   2.074       .  S
Fe420       O427   2.050       .  S
Fe420       O431   2.076       .  S
Fe420       O436   2.042       .  S
Fe420       O430   1.958       .  S
Fe421       O439   2.070       .  S
Fe421       O426   2.107       .  S
Fe421       O433   2.094       .  S
Fe421       O422   2.069       .  S
Fe421       O430   1.977       .  S
O422        C429   1.273       .  A
O423        C437   1.269       .  A
O424        C429   1.271       .  A
O425        C428   1.263       .  A
O426        C438   1.277       .  A
O427        C440   1.271       .  A
C428        O433   1.270       .  A
C428       C1147   1.475       .  S
C429       C1192   1.462       .  S
O431        C434   1.266       .  A
O432        C434   1.260       .  A
C434       C1096   1.467       .  S
O435        C440   1.271       .  A
O436        C438   1.266       .  A
C437        O439   1.268       .  A
C437       C1531   1.465       .  S
C438       C1659   1.472       .  S
C440       C1208   1.457       .  S
Fe441       O457   2.075       .  S
Fe441       O447   2.025       .  S
Fe441       O454   2.039   1_554  S
Fe441       O446   2.062       .  S
Fe441       O452   1.959       .  S
Fe442       O445   2.080       .  S
Fe442       O449   2.074       .  S
Fe442       O453   2.085   1_554  S
Fe442       O458   2.055   1_554  S
Fe442       O452   1.940       .  S
Fe443       O461   2.067       .  S
Fe443       O448   2.063       .  S
Fe443       O455   2.092       .  S
Fe443       O444   2.078       .  S
Fe443       O452   1.961       .  S
O444        C451   1.266       .  A
O445        C459   1.273       .  A
O446        C451   1.265       .  A
O447        C450   1.268       .  A
O448        C460   1.267   1_554  A
O449        C462   1.267       .  A
C450        O455   1.276       .  A
C450       C1016   1.458       .  S
C451       C1048   1.472       .  S
O453        C456   1.276       .  A
O454        C456   1.267       .  A
C456       C1032   1.453       .  S
O457        C462   1.264       .  A
O458        C460   1.267       .  A
C459        O461   1.272       .  A
C459       C1080   1.473       .  S
C460       C1064   1.454       .  S
C462       C1291   1.478       .  S
Fe463       O479   2.061       .  S
Fe463       O469   2.089       .  S
Fe463       O476   2.088   1_556  S
Fe463       O468   2.042       .  S
Fe463       O474   1.963       .  S
Fe464       O467   2.047   1_554  S
Fe464       O471   2.072   1_554  S
Fe464       O475   2.053       .  S
Fe464       O480   2.069       .  S
Fe464       O474   1.953   1_554  S
Fe465       O483   2.094       .  S
Fe465       O470   2.056   1_556  S
Fe465       O477   2.042       .  S
Fe465       O466   2.087       .  S
Fe465       O474   1.970       .  S
O466        C473   1.268       .  A
O467        C481   1.267       .  A
O468        C473   1.262       .  A
O469        C472   1.276       .  A
O470        C482   1.265       .  A
O471        C484   1.266       .  A
C472        O477   1.269       .  A
C472       C1003   1.459       .  S
C473       C1051   1.470   1_556  S
O475        C478   1.271       .  A
O476        C478   1.276       .  A
C478        C984   1.467       .  S
O479        C484   1.265       .  A
O480        C482   1.268       .  A
C481        O483   1.273       .  A
C481       C1099   1.468       .  S
C482       C1176   1.454       .  S
C484       C1819   1.474       .  S
Fe485       O501   2.068       .  S
Fe485       O491   2.051       .  S
Fe485       O498   2.058       .  S
Fe485       O490   2.064       .  S
Fe485       O496   1.974       .  S
Fe486       O489   2.076       .  S
Fe486       O493   2.047       .  S
Fe486       O497   2.072       .  S
Fe486       O502   2.044       .  S
Fe486       O496   1.963       .  S
Fe487       O505   2.067       .  S
Fe487       O492   2.094       .  S
Fe487       O499   2.085       .  S
Fe487       O488   2.063       .  S
Fe487       O496   1.983       .  S
O488        C495   1.272       .  A
O489        C503   1.271       .  A
O490        C495   1.271       .  A
O491        C494   1.266       .  A
O492        C504   1.273       .  A
O493        C506   1.267       .  A
C494        O499   1.269       .  A
C494        C952   1.476       .  S
C495       C1035   1.462       .  S
O497        C500   1.267       .  A
O498        C500   1.264       .  A
C500        C968   1.468       .  S
O501        C506   1.270       .  A
O502        C504   1.263       .  A
C503        O505   1.268       .  A
C503       C1307   1.464       .  S
C504       C1352   1.469       .  S
C506       C1019   1.455       .  S
Fe507       O523   2.040       .  S
Fe507       O513   2.055       .  S
Fe507       O520   2.069       .  S
Fe507       O512   2.030       .  S
Fe507       O518   1.942       .  S
Fe508       O511   2.051       .  S
Fe508       O515   2.091       .  S
Fe508       O519   2.058       .  S
Fe508       O524   2.068       .  S
Fe508       O518   1.940       .  S
Fe509       O527   2.098       .  S
Fe509       O514   2.066       .  S
Fe509       O521   2.087       .  S
Fe509       O510   2.115       .  S
Fe509       O518   1.952       .  S
O510        C517   1.283       .  A
O511        C525   1.270       .  A
O512        C517   1.269       .  A
O513        C516   1.263       .  A
O514        C526   1.270       .  A
O515        C528   1.275       .  A
C516        O521   1.269       .  A
C516        C955   1.472       .  S
C517        C987   1.465       .  S
O519        C522   1.263       .  A
O520        C522   1.266       .  A
C522       C1160   1.464       .  S
O523        C528   1.266       .  A
O524        C526   1.269       .  A
C525        O527   1.277       .  A
C525       C1832   1.467       .  S
C526       C1723   1.467       .  S
C528       C1000   1.451       .  S
Fe529       O545   2.056       .  S
Fe529       O535   2.032       .  S
Fe529       O542   2.042       .  S
Fe529       O534   2.052       .  S
Fe529       O540   1.980       .  S
Fe530       O533   2.061       .  S
Fe530       O537   2.061       .  S
Fe530       O541   2.065       .  S
Fe530       O546   2.052       .  S
Fe530       O540   1.973       .  S
Fe531       O549   2.084       .  S
Fe531       O536   2.077       .  S
Fe531       O543   2.076       .  S
Fe531       O532   2.098       .  S
Fe531       O540   1.991       .  S
O532        C539   1.272       .  A
O533        C547   1.267       .  A
O534        C539   1.265       .  A
O535        C538   1.265       .  A
O536        C548   1.270       .  A
O537        C550   1.264       .  A
C538        O543   1.272       .  A
C538        C904   1.458       .  S
C539        C936   1.481       .  S
O541        C544   1.269       .  A
O542        C544   1.265       .  A
C544        C920   1.452       .  S
O545        C550   1.263       .  A
O546        C548   1.267       .  A
C547        O549   1.271       .  A
C547       C1899   1.475       .  S
C548       C1784   1.462       .  S
C550       C1115   1.464       .  S
Fe551       O567   2.064       .  S
Fe551       O557   2.018       .  S
Fe551       O564   2.032       .  S
Fe551       O556   2.055       .  S
Fe551       O562   1.970       .  S
Fe552       O555   2.054       .  S
Fe552       O559   2.073       .  S
Fe552       O563   2.066       .  S
Fe552       O568   2.063       .  S
Fe552       O562   1.966       .  S
Fe553       O571   2.075       .  S
Fe553       O558   2.074       .  S
Fe553       O565   2.080       .  S
Fe553       O554   2.088       .  S
Fe553       O562   1.988       .  S
O554        C561   1.269       .  A
O555        C569   1.267       .  A
O556        C561   1.267       .  A
O557        C560   1.264       .  A
O558        C570   1.269       .  A
O559        C572   1.265       .  A
C560        O565   1.272       .  A
C560        C891   1.453       .  S
C561        C939   1.482       .  S
O563        C566   1.270       .  A
O564        C566   1.264       .  A
C566        C872   1.448       .  S
O567        C572   1.265       .  A
O568        C570   1.269       .  A
C569        O571   1.270       .  A
C569       C1336   1.465       .  S
C570       C1467   1.465       .  S
C572        C859   1.475       .  S
Fe573       O589   2.055   1_554  S
Fe573       O579   2.051       .  S
Fe573       O586   2.050       .  S
Fe573       O578   2.049       .  S
Fe573       O584   1.959       .  S
Fe574       O577   2.063   1_554  S
Fe574       O581   2.054   1_554  S
Fe574       O585   2.070       .  S
Fe574       O590   2.046       .  S
Fe574       O584   1.957       .  S
Fe575       O593   2.069       .  S
Fe575       O580   2.099       .  S
Fe575       O587   2.094       .  S
Fe575       O576   2.061       .  S
Fe575       O584   1.974       .  S
O576        C583   1.271       .  A
O577        C591   1.269       .  A
O578        C583   1.269       .  A
O579        C582   1.266       .  A
O580        C592   1.275       .  A
O581        C594   1.270       .  A
C582        O587   1.270       .  A
C582        C843   1.481       .  S
C583        C923   1.455       .  S
O585        C588   1.266       .  A
O586        C588   1.262       .  A
C588       C1771   1.467       .  S
O589        C594   1.269       .  A
O590        C592   1.266       .  A
C591        O593   1.268   1_556  A
C591       C1131   1.459       .  S
C592       C1227   1.469       .  S
C594        C907   1.449       .  S
Fe595       O611   2.025   1_556  S
Fe595       O601   2.064       .  S
Fe595       O608   2.078       .  S
Fe595       O600   2.015       .  S
Fe595       O606   1.965       .  S
Fe596       O599   2.058       .  S
Fe596       O603   2.074       .  S
Fe596       O607   2.062   1_554  S
Fe596       O612   2.071   1_554  S
Fe596       O606   1.949   1_554  S
Fe597       O615   2.078   1_556  S
Fe597       O602   2.076       .  S
Fe597       O609   2.085       .  S
Fe597       O598   2.095       .  S
Fe597       O606   1.968       .  S
O598        C605   1.276       .  A
O599        C613   1.269       .  A
O600        C605   1.265       .  A
O601        C604   1.266       .  A
O602        C614   1.271       .  A
O603        C616   1.272       .  A
C604        O609   1.269       .  A
C604        C840   1.475       .  S
C605        C875   1.454       .  S
O607        C610   1.265       .  A
O608        C610   1.266       .  A
C610       C1448   1.469       .  S
O611        C616   1.263       .  A
O612        C614   1.269       .  A
C613        O615   1.272       .  A
C613        C811   1.461       .  S
C614        C827   1.474       .  S
C616        C888   1.442       .  S
Fe617       O633   2.053   1_655  S
Fe617       O623   2.059       .  S
Fe617       O630   2.056       .  S
Fe617       O622   2.049       .  S
Fe617       O628   1.964       .  S
Fe618       O621   2.038       .  S
Fe618       O625   2.079       .  S
Fe618       O629   2.050       .  S
Fe618       O634   2.076       .  S
Fe618       O628   1.955       .  S
Fe619       O637   2.103       .  S
Fe619       O624   2.073       .  S
Fe619       O631   2.060       .  S
Fe619       O620   2.091       .  S
Fe619       O628   1.974       .  S
O620        C627   1.270       .  A
O621        C635   1.264       .  A
O622        C627   1.263       .  A
O623        C626   1.272       .  A
O624        C636   1.269       .  A
O625        C638   1.267   1_655  A
C626        O631   1.272       .  A
C626        C763   1.459       .  S
C627        C792   1.476       .  S
O629        C632   1.270       .  A
O630        C632   1.270       .  A
C632        C776   1.450       .  S
O633        C638   1.262       .  A
O634        C636   1.271       .  A
C635        O637   1.275       .  A
C635       C2024   1.468       .  S
C636       C2203   1.468       .  S
C638        C824   1.473       .  S
Fe639       O655   2.067   1_655  S
Fe639       O645   2.041       .  S
Fe639       O652   2.049   1_655  S
Fe639       O644   2.074       .  S
Fe639       O650   1.949       .  S
Fe640       O643   2.077       .  S
Fe640       O647   2.067       .  S
Fe640       O651   2.079       .  S
Fe640       O656   2.049       .  S
Fe640       O650   1.948       .  S
Fe641       O659   2.062       .  S
Fe641       O646   2.066       .  S
Fe641       O653   2.084       .  S
Fe641       O642   2.077       .  S
Fe641       O650   1.964       .  S
O642        C649   1.269       .  A
O643        C657   1.272       .  A
O644        C649   1.269       .  A
O645        C648   1.267       .  A
O646        C658   1.267       .  A
O647        C660   1.266   1_655  A
C648        O653   1.272       .  A
C648        C747   1.458       .  S
C649        C795   1.476       .  S
O651        C654   1.273       .  A
O652        C654   1.269   1_455  A
C654        C731   1.454   1_655  S
O655        C660   1.265       .  A
O656        C658   1.266       .  A
C657        O659   1.271       .  A
C657        C971   1.468       .  S
C658       C1067   1.453       .  S
C660       C1499   1.469       .  S
Fe661       O677   2.040       .  S
Fe661       O667   2.054       .  S
Fe661       O674   2.059   1_455  S
Fe661       O666   2.027       .  S
Fe661       O672   1.963       .  S
Fe662       O665   2.057       .  S
Fe662       O669   2.078       .  S
Fe662       O673   2.066       .  S
Fe662       O678   2.075       .  S
Fe662       O672   1.955       .  S
Fe663       O681   2.072       .  S
Fe663       O668   2.066       .  S
Fe663       O675   2.085       .  S
Fe663       O664   2.089       .  S
Fe663       O672   1.973       .  S
O664        C671   1.275       .  A
O665        C679   1.267       .  A
O666        C671   1.265       .  A
O667        C670   1.265       .  A
O668        C680   1.270       .  A
O669        C682   1.274       .  A
C670        O675   1.268       .  A
C670        C712   1.476       .  S
C671        C779   1.454       .  S
O673        C676   1.264   1_455  A
O674        C676   1.263       .  A
C676       C2219   1.469       .  S
O677        C682   1.268       .  A
O678        C680   1.271       .  A
C679        O681   1.269       .  A
C679        C808   1.461       .  S
C680        C856   1.469       .  S
C682        C760   1.450       .  S
Fe683       O699   2.052       .  S
Fe683       O689   2.053       .  S
Fe683       O696   2.062   1_455  S
Fe683       O688   2.048       .  S
Fe683       O694   1.979       .  S
Fe684       O687   2.054       .  S
Fe684       O691   2.064       .  S
Fe684       O695   2.066       .  S
Fe684       O700   2.050       .  S
Fe684       O694   1.971       .  S
Fe685       O703   2.070       .  S
Fe685       O690   2.073       .  S
Fe685       O697   2.075       .  S
Fe685       O686   2.065       .  S
Fe685       O694   1.996       .  S
O686        C693   1.270       .  A
O687        C701   1.267       .  A
O688        C693   1.268       .  A
O689        C692   1.265       .  A
O690        C702   1.268       .  A
O691        C704   1.269       .  A
C692        O697   1.268       .  A
C692        C715   1.471       .  S
C693        C728   1.461       .  S
O695        C698   1.266       .  A
O696        C698   1.265   1_655  A
C698       C1083   1.467   1_455  S
O699        C704   1.265       .  A
O700        C702   1.264       .  A
C701        O703   1.269       .  A
C701       C1483   1.457       .  S
C702       C1579   1.465       .  S
C704        C744   1.460       .  S
C705        C710   1.380       .  A
C705        C706   1.412       .  A
C705        O711   1.328       .  A
C706        C707   1.412       .  A
C706        H717   1.082       .  S
C707        C716   1.370   1_545  A
C707        C708   1.381       .  A
C708        C709   1.395       .  A
C708        O714   1.313   1_545  A
C709        C710   1.395       .  A
C709        H718   1.083       .  S
C710        C713   1.350       .  A
O711        C712   1.336       .  A
C712        C713   1.388       .  A
C713        H719   1.083       .  S
O714        C715   1.327       .  A
C715        C716   1.396       .  A
C716        H720   1.082       .  S
C721        C726   1.382       .  A
C721        C722   1.402   1_554  A
C721        O727   1.317       .  A
C722        C723   1.401       .  A
C722        H733   1.082       .  S
C723        C732   1.361       .  A
C723        C724   1.382       .  A
C724        C725   1.398   1_456  A
C724        O730   1.314   1_455  A
C725        C726   1.397   1_655  A
C725        H734   1.083       .  S
C726        C729   1.354       .  A
O727        C728   1.330       .  A
C728        C729   1.389       .  A
C729        H735   1.083   1_455  S
O730        C731   1.327   1_655  A
C731        C732   1.388       .  A
C732        H736   1.082       .  S
C737        C742   1.381   1_655  A
C737        C738   1.405       .  A
C737        O743   1.318       .  A
C738        C739   1.403       .  A
C738        H749   1.083       .  S
C739        C748   1.364       .  A
C739        C740   1.381   1_655  A
C740        C741   1.396       .  A
C740        O746   1.311       .  A
C741        C742   1.395       .  A
C741        H750   1.083       .  S
C742        C745   1.355       .  A
O743        C744   1.331   1_655  A
C744        C745   1.386       .  A
C745        H751   1.083       .  S
O746        C747   1.326   1_455  A
C747        C748   1.392       .  A
C748        H752   1.083       .  S
C753        C758   1.382   1_455  A
C753        C754   1.398       .  A
C753        O759   1.314       .  A
C754        C755   1.397       .  A
C754        H765   1.083       .  S
C755        C764   1.355   1_554  A
C755        C756   1.381   1_455  A
C756        C757   1.401       .  A
C756        O762   1.317   1_554  A
C757        C758   1.400       .  A
C757        H766   1.082       .  S
C758        C761   1.359       .  A
O759        C760   1.326       .  A
C760        C761   1.387   1_455  A
C761        H767   1.083       .  S
O762        C763   1.329       .  A
C763        C764   1.389   1_655  A
C764        H768   1.083       .  S
C769        C774   1.382   1_455  A
C769        C770   1.399       .  A
C769        O775   1.312       .  A
C770        C771   1.397       .  A
C770        H781   1.083       .  S
C771        C780   1.360       .  A
C771        C772   1.382       .  A
C772        C773   1.398   1_455  A
C772        O778   1.310       .  A
C773        C774   1.395       .  A
C773        H782   1.083       .  S
C774        C777   1.356       .  A
O775        C776   1.327   1_455  A
C776        C777   1.387       .  A
C777        H783   1.083       .  S
O778        C779   1.328       .  A
C779        C780   1.388       .  A
C780        H784   1.083       .  S
C785        C790   1.380       .  A
C785        C786   1.400       .  A
C785        O791   1.316       .  A
C786        C787   1.399       .  A
C786        H797   1.082       .  S
C787        C796   1.356   1_545  A
C787        C788   1.380       .  A
C788        C789   1.410       .  A
C788        O794   1.326   1_545  A
C789        C790   1.409       .  A
C789        H798   1.083       .  S
C790        C793   1.370       .  A
O791        C792   1.330       .  A
C792        C793   1.395       .  A
C793        H799   1.083       .  S
O794        C795   1.334       .  A
C795        C796   1.390       .  A
C796        H800   1.083       .  S
C801        C806   1.381       .  A
C801        C802   1.401       .  A
C801        O807   1.319       .  A
C802        C803   1.401       .  A
C802        H813   1.082       .  S
C803        C812   1.358       .  A
C803        C804   1.381       .  A
C804        C805   1.402       .  A
C804        O810   1.320       .  A
C805        C806   1.403       .  A
C805        H814   1.083       .  S
C806        C809   1.360       .  A
O807        C808   1.330       .  A
C808        C809   1.389       .  A
C809        H815   1.083       .  S
O810        C811   1.330       .  A
C811        C812   1.388       .  A
C812        H816   1.083       .  S
C817        C822   1.380       .  A
C817        C818   1.405       .  A
C817        O823   1.320       .  A
C818        C819   1.404       .  A
C818        H829   1.082       .  S
C819        C828   1.364       .  A
C819        C820   1.380       .  A
C820        C821   1.406       .  A
C820        O826   1.321       .  A
C821        C822   1.404       .  A
C821        H830   1.082       .  S
C822        C825   1.365       .  A
O823        C824   1.332       .  A
C824        C825   1.391       .  A
C825        H831   1.082       .  S
O826        C827   1.332       .  A
C827        C828   1.392       .  A
C828        H832   1.082       .  S
C833        C838   1.380   1_556  A
C833        C834   1.398       .  A
C833        O839   1.314       .  A
C834        C835   1.397       .  A
C834        H845   1.082       .  S
C835        C844   1.355   1_556  A
C835        C836   1.379   1_556  A
C836        C837   1.413       .  A
C836        O842   1.328       .  A
C837        C838   1.412       .  A
C837        H846   1.082       .  S
C838        C841   1.374       .  A
O839        C840   1.328       .  A
C840        C841   1.397   1_556  A
C841        H847   1.083       .  S
O842        C843   1.336       .  A
C843        C844   1.390       .  A
C844        H848   1.083   1_554  S
C849        C854   1.381       .  A
C849        C850   1.400       .  A
C849        O855   1.316       .  A
C850        C851   1.399       .  A
C850        H861   1.083       .  S
C851        C860   1.358       .  A
C851        C852   1.380       .  A
C852        C853   1.408       .  A
C852        O858   1.323       .  A
C853        C854   1.407       .  A
C853        H862   1.083       .  S
C854        C857   1.367       .  A
O855        C856   1.328       .  A
C856        C857   1.394       .  A
C857        H863   1.083       .  S
O858        C859   1.334       .  A
C859        C860   1.390       .  A
C860        H864   1.083       .  S
C865        C870   1.383       .  A
C865        C866   1.392       .  A
C865        O871   1.311       .  A
C866        C867   1.393       .  A
C866        H877   1.083       .  S
C867        C876   1.346       .  A
C867        C868   1.382       .  A
C868        C869   1.401       .  A
C868        O874   1.319       .  A
C869        C870   1.401       .  A
C869        H878   1.083       .  S
C870        C873   1.357       .  A
O871        C872   1.324       .  A
C872        C873   1.389       .  A
C873        H879   1.083       .  S
O874        C875   1.329       .  A
C875        C876   1.387       .  A
C876        H880   1.083       .  S
C881        C886   1.383       .  A
C881        C882   1.390       .  A
C881        O887   1.309       .  A
C882        C883   1.391       .  A
C882        H893   1.083       .  S
C883        C892   1.345       .  A
C883        C884   1.382       .  A
C884        C885   1.401       .  A
C884        O890   1.318       .  A
C885        C886   1.401       .  A
C885        H894   1.082       .  S
C886        C889   1.359       .  A
O887        C888   1.322       .  A
C888        C889   1.388       .  A
C889        H895   1.083       .  S
O890        C891   1.329       .  A
C891        C892   1.386       .  A
C892        H896   1.083       .  S
C897        C902   1.382       .  A
C897        C898   1.400       .  A
C897        O903   1.318       .  A
C898        C899   1.400       .  A
C898        H909   1.082       .  S
C899        C908   1.356       .  A
C899        C900   1.382       .  A
C900        C901   1.395       .  A
C900        O906   1.313       .  A
C901        C902   1.396       .  A
C901        H910   1.083       .  S
C902        C905   1.350       .  A
O903        C904   1.329       .  A
C904        C905   1.389       .  A
C905        H911   1.083       .  S
O906        C907   1.325       .  A
C907        C908   1.388       .  A
C908        H912   1.083       .  S
C913        C918   1.382       .  A
C913        C914   1.395       .  A
C913        O919   1.313       .  A
C914        C915   1.396       .  A
C914        H925   1.083       .  S
C915        C924   1.351       .  A
C915        C916   1.382       .  A
C916        C917   1.401       .  A
C916        O922   1.318       .  A
C917        C918   1.401       .  A
C917        H926   1.082       .  S
C918        C921   1.358       .  A
O919        C920   1.326       .  A
C920        C921   1.389       .  A
C921        H927   1.083       .  S
O922        C923   1.329       .  A
C923        C924   1.387       .  A
C924        H928   1.083       .  S
C929        C934   1.380       .  A
C929        C930   1.397       .  A
C929        O935   1.314       .  A
C930        C931   1.396       .  A
C930        H941   1.082       .  S
C931        C940   1.352       .  A
C931        C932   1.379       .  A
C932        C933   1.415       .  A
C932        O938   1.330       .  A
C933        C934   1.416       .  A
C933        H942   1.082       .  S
C934        C937   1.377       .  A
O935        C936   1.329       .  A
C936        C937   1.399       .  A
C937        H943   1.082       .  S
O938        C939   1.338       .  A
C939        C940   1.389       .  A
C940        H944   1.083       .  S
C945        C950   1.380       .  A
C945        C946   1.411       .  A
C945        O951   1.325       .  A
C946        C947   1.409       .  A
C946        H957   1.082       .  S
C947        C956   1.372       .  A
C947        C948   1.380       .  A
C948        C949   1.398       .  A
C948        O954   1.313       .  A
C949        C950   1.397       .  A
C949        H958   1.083       .  S
C950        C953   1.355       .  A
O951        C952   1.335       .  A
C952        C953   1.390       .  A
C953        H959   1.083       .  S
O954        C955   1.329       .  A
C955        C956   1.395       .  A
C956        H960   1.082       .  S
C961        C966   1.381       .  A
C961        C962   1.402       .  A
C961        O967   1.318       .  A
C962        C963   1.401       .  A
C962        H973   1.083       .  S
C963        C972   1.360       .  A
C963        C964   1.381       .  A
C964        C965   1.405       .  A
C964        O970   1.320       .  A
C965        C966   1.404       .  A
C965        H974   1.082       .  S
C966        C969   1.364       .  A
O967        C968   1.330       .  A
C968        C969   1.391       .  A
C969        H975   1.082       .  S
O970        C971   1.332       .  A
C971        C972   1.390       .  A
C972        H976   1.083       .  S
C977        C982   1.381       .  A
C977        C978   1.405       .  A
C977        O983   1.320       .  A
C978        C979   1.404       .  A
C978        H989   1.082       .  S
C979        C988   1.366       .  A
C979        C980   1.381       .  A
C980        C981   1.400       .  A
C980        O986   1.313       .  A
C981        C982   1.398       .  A
C981        H990   1.083       .  S
C982        C985   1.357       .  A
O983        C984   1.331       .  A
C984        C985   1.390       .  A
C985        H991   1.083       .  S
O986        C987   1.330       .  A
C987        C988   1.391       .  A
C988        H992   1.082       .  S
C993        C998   1.382       .  A
C993        C994   1.402       .  A
C993        O999   1.315       .  A
C994        C995   1.401       .  A
C994       H1005   1.083       .  S
C995       C1004   1.363       .  A
C995        C996   1.381       .  A
C996        C997   1.399       .  A
C996       O1002   1.311       .  A
C997        C998   1.396       .  A
C997       H1006   1.083       .  S
C998       C1001   1.357       .  A
O999       C1000   1.328       .  A
C1000      C1001   1.386       .  A
C1001      H1007   1.083       .  S
O1002      C1003   1.328       .  A
C1003      C1004   1.390       .  A
C1004      H1008   1.082       .  S
C1009      C1014   1.381       .  A
C1009      C1010   1.404       .  A
C1009      O1015   1.319       .  A
C1010      C1011   1.404       .  A
C1010      H1021   1.083       .  S
C1011      C1020   1.362       .  A
C1011      C1012   1.382       .  A
C1012      C1013   1.393       .  A
C1012      O1018   1.310       .  A
C1013      C1014   1.393       .  A
C1013      H1022   1.083       .  S
C1014      C1017   1.348       .  A
O1015      C1016   1.331       .  A
C1016      C1017   1.387       .  A
C1017      H1023   1.083       .  S
O1018      C1019   1.325       .  A
C1019      C1020   1.391       .  A
C1020      H1024   1.083       .  S
C1025      C1030   1.382       .  A
C1025      C1026   1.402       .  A
C1025      O1031   1.316       .  A
C1026      C1027   1.401       .  A
C1026      H1037   1.083       .  S
C1027      C1036   1.362       .  A
C1027      C1028   1.382       .  A
C1028      C1029   1.399       .  A
C1028      O1034   1.313       .  A
C1029      C1030   1.397       .  A
C1029      H1038   1.083       .  S
C1030      C1033   1.358       .  A
O1031      C1032   1.328       .  A
C1032      C1033   1.386       .  A
C1033      H1039   1.083       .  S
O1034      C1035   1.328       .  A
C1035      C1036   1.391       .  A
C1036      H1040   1.083       .  S
C1041      C1046   1.380       .  A
C1041      C1042   1.411       .  A
C1041      O1047   1.325       .  A
C1042      C1043   1.410       .  A
C1042      H1053   1.083   1_554  S
C1043      C1052   1.371   1_554  A
C1043      C1044   1.381       .  A
C1044      C1045   1.396       .  A
C1044      O1050   1.312       .  A
C1045      C1046   1.395       .  A
C1045      H1054   1.083       .  S
C1046      C1049   1.352       .  A
O1047      C1048   1.334       .  A
C1048      C1049   1.388       .  A
C1049      H1055   1.083       .  S
O1050      C1051   1.327       .  A
C1051      C1052   1.396   1_554  A
C1052      H1056   1.083       .  S
C1057      C1062   1.382       .  A
C1057      C1058   1.400       .  A
C1057      O1063   1.314       .  A
C1058      C1059   1.398       .  A
C1058      H1069   1.083       .  S
C1059      C1068   1.358       .  A
C1059      C1060   1.382       .  A
C1060      C1061   1.401       .  A
C1060      O1066   1.315       .  A
C1061      C1062   1.399       .  A
C1061      H1070   1.082       .  S
C1062      C1065   1.361       .  A
O1063      C1064   1.328       .  A
C1064      C1065   1.388       .  A
C1065      H1071   1.083       .  S
O1066      C1067   1.328       .  A
C1067      C1068   1.387       .  A
C1068      H1072   1.083       .  S
C1073      C1078   1.380       .  A
C1073      C1074   1.404       .  A
C1073      O1079   1.319       .  A
C1074      C1075   1.403       .  A
C1074      H1085   1.082       .  S
C1075      C1084   1.364       .  A
C1075      C1076   1.381       .  A
C1076      C1077   1.403       .  A
C1076      O1082   1.318       .  A
C1077      C1078   1.403       .  A
C1077      H1086   1.083       .  S
C1078      C1081   1.363       .  A
O1079      C1080   1.331       .  A
C1080      C1081   1.393       .  A
C1081      H1087   1.083       .  S
O1082      C1083   1.330       .  A
C1083      C1084   1.391       .  A
C1084      H1088   1.082       .  S
C1089      C1094   1.381       .  A
C1089      C1090   1.402       .  A
C1089      O1095   1.320       .  A
C1090      C1091   1.402       .  A
C1090      H1101   1.082       .  S
C1091      C1100   1.359       .  A
C1091      C1092   1.381       .  A
C1092      C1093   1.402       .  A
C1092      O1098   1.319       .  A
C1093      C1094   1.402       .  A
C1093      H1102   1.083       .  S
C1094      C1097   1.358       .  A
O1095      C1096   1.330       .  A
C1096      C1097   1.391       .  A
C1097      H1103   1.083       .  S
O1098      C1099   1.331       .  A
C1099      C1100   1.391       .  A
C1100      H1104   1.083       .  S
C1105      C1110   1.381       .  A
C1105      C1106   1.405       .  A
C1105      O1111   1.319       .  A
C1106      C1107   1.404       .  A
C1106      H1117   1.083       .  S
C1107      C1116   1.363       .  A
C1107      C1108   1.381       .  A
C1108      C1109   1.400       .  A
C1108      O1114   1.315       .  A
C1109      C1110   1.399       .  A
C1109      H1118   1.083       .  S
C1110      C1113   1.358       .  A
O1111      C1112   1.332       .  A
C1112      C1113   1.388       .  A
C1113      H1119   1.083       .  S
O1114      C1115   1.328       .  A
C1115      C1116   1.392       .  A
C1116      H1120   1.083       .  S
C1121      C1126   1.382       .  A
C1121      C1122   1.395       .  A
C1121      O1127   1.312       .  A
C1122      C1123   1.395       .  A
C1122      H1133   1.083       .  S
C1123      C1132   1.351       .  A
C1123      C1124   1.381       .  A
C1124      C1125   1.407       .  A
C1124      O1130   1.323       .  A
C1125      C1126   1.407       .  A
C1125      H1134   1.082       .  S
C1126      C1129   1.367       .  A
O1127      C1128   1.326       .  A
C1128      C1129   1.393       .  A
C1129      H1135   1.082       .  S
O1130      C1131   1.332       .  A
C1131      C1132   1.385       .  A
C1132      H1136   1.083   1_556  S
C1137      C1142   1.381       .  A
C1137      C1138   1.396       .  A
C1137      O1143   1.312       .  A
C1138      C1139   1.395       .  A
C1138      H1149   1.083       .  S
C1139      C1148   1.352   1_545  A
C1139      C1140   1.380       .  A
C1140      C1141   1.411       .  A
C1140      O1146   1.326   1_545  A
C1141      C1142   1.411       .  A
C1141      H1150   1.082       .  S
C1142      C1145   1.372       .  A
O1143      C1144   1.328       .  A
C1144      C1145   1.396       .  A
C1145      H1151   1.082       .  S
O1146      C1147   1.335       .  A
C1147      C1148   1.390       .  A
C1148      H1152   1.083       .  S
C1153      C1158   1.381       .  A
C1153      C1154   1.402       .  A
C1153      O1159   1.320       .  A
C1154      C1155   1.402       .  A
C1154      H1165   1.083       .  S
C1155      C1164   1.358       .  A
C1155      C1156   1.381       .  A
C1156      C1157   1.400       .  A
C1156      O1162   1.319       .  A
C1157      C1158   1.400       .  A
C1157      H1166   1.083       .  S
C1158      C1161   1.355       .  A
O1159      C1160   1.330       .  A
C1160      C1161   1.390       .  A
C1161      H1167   1.083       .  S
O1162      C1163   1.330       .  A
C1163      C1164   1.391       .  A
C1164      H1168   1.083       .  S
C1169      C1174   1.382       .  A
C1169      C1170   1.397       .  A
C1169      O1175   1.312       .  A
C1170      C1171   1.396       .  A
C1170      H1181   1.082       .  S
C1171      C1180   1.355       .  A
C1171      C1172   1.381       .  A
C1172      C1173   1.406       .  A
C1172      O1178   1.320       .  A
C1173      C1174   1.404       .  A
C1173      H1182   1.082       .  S
C1174      C1177   1.365       .  A
O1175      C1176   1.326       .  A
C1176      C1177   1.389       .  A
C1177      H1183   1.082       .  S
O1178      C1179   1.331       .  A
C1179      C1180   1.386       .  A
C1180      H1184   1.083       .  S
C1185      C1190   1.382       .  A
C1185      C1186   1.397       .  A
C1185      O1191   1.311   1_554  A
C1186      C1187   1.395       .  A
C1186      H1197   1.083       .  S
C1187      C1196   1.355       .  A
C1187      C1188   1.381       .  A
C1188      C1189   1.405       .  A
C1188      O1194   1.319       .  A
C1189      C1190   1.404       .  A
C1189      H1198   1.082       .  S
C1190      C1193   1.365   1_554  A
O1191      C1192   1.327       .  A
C1192      C1193   1.392       .  A
C1193      H1199   1.082       .  S
O1194      C1195   1.330       .  A
C1195      C1196   1.385       .  A
C1196      H1200   1.083       .  S
C1201      C1206   1.381       .  A
C1201      C1202   1.405       .  A
C1201      O1207   1.318       .  A
C1202      C1203   1.404       .  A
C1202      H1213   1.083       .  S
C1203      C1212   1.365       .  A
C1203      C1204   1.381       .  A
C1204      C1205   1.394       .  A
C1204      O1210   1.309       .  A
C1205      C1206   1.392       .  A
C1205      H1214   1.083       .  S
C1206      C1209   1.352       .  A
O1207      C1208   1.331       .  A
C1208      C1209   1.385       .  A
C1209      H1215   1.083       .  S
O1210      C1211   1.326       .  A
C1211      C1212   1.392       .  A
C1212      H1216   1.082       .  S
C1217      C1222   1.381       .  A
C1217      C1218   1.403       .  A
C1217      O1223   1.319       .  A
C1218      C1219   1.403       .  A
C1218      H1229   1.083       .  S
C1219      C1228   1.360       .  A
C1219      C1220   1.381       .  A
C1220      C1221   1.402       .  A
C1220      O1226   1.319       .  A
C1221      C1222   1.401       .  A
C1221      H1230   1.083       .  S
C1222      C1225   1.359       .  A
O1223      C1224   1.330       .  A
C1224      C1225   1.390       .  A
C1225      H1231   1.083       .  S
O1226      C1227   1.330       .  A
C1227      C1228   1.393       .  A
C1228      H1232   1.083       .  S
C1233      C1238   1.381       .  A
C1233      C1234   1.404       .  A
C1233      O1239   1.319       .  A
C1234      C1235   1.403   1_556  A
C1234      H1245   1.083       .  S
C1235      C1244   1.364       .  A
C1235      C1236   1.381       .  A
C1236      C1237   1.399   1_554  A
C1236      O1242   1.313       .  A
C1237      C1238   1.398       .  A
C1237      H1246   1.083   1_556  S
C1238      C1241   1.358       .  A
O1239      C1240   1.330       .  A
C1240      C1241   1.387       .  A
C1241      H1247   1.083       .  S
O1242      C1243   1.329       .  A
C1243      C1244   1.391       .  A
C1244      H1248   1.083       .  S
C1249      C1254   1.381       .  A
C1249      C1250   1.404       .  A
C1249      O1255   1.321       .  A
C1250      C1251   1.404       .  A
C1250      H1261   1.083       .  S
C1251      C1260   1.361       .  A
C1251      C1252   1.382       .  A
C1252      C1253   1.395       .  A
C1252      O1258   1.313       .  A
C1253      C1254   1.395       .  A
C1253      H1262   1.083       .  S
C1254      C1257   1.350       .  A
O1255      C1256   1.331       .  A
C1256      C1257   1.388       .  A
C1257      H1263   1.083       .  S
O1258      C1259   1.326       .  A
C1259      C1260   1.391       .  A
C1260      H1264   1.083       .  S
C1265      C1270   1.380       .  A
C1265      C1266   1.412       .  A
C1265      O1271   1.326       .  A
C1266      C1267   1.410       .  A
C1266      H1277   1.083       .  S
C1267      C1276   1.373   1_545  A
C1267      C1268   1.380       .  A
C1268      C1269   1.398       .  A
C1268      O1274   1.313   1_545  A
C1269      C1270   1.397       .  A
C1269      H1278   1.083       .  S
C1270      C1273   1.355       .  A
O1271      C1272   1.335       .  A
C1272      C1273   1.391       .  A
C1273      H1279   1.083       .  S
O1274      C1275   1.329       .  A
C1275      C1276   1.396       .  A
C1276      H1280   1.082       .  S
C1281      C1286   1.380       .  A
C1281      C1282   1.403       .  A
C1281      O1287   1.321       .  A
C1282      C1283   1.403       .  A
C1282      H1293   1.082       .  S
C1283      C1292   1.362       .  A
C1283      C1284   1.380       .  A
C1284      C1285   1.408       .  A
C1284      O1290   1.323       .  A
C1285      C1286   1.407       .  A
C1285      H1294   1.082       .  S
C1286      C1289   1.365       .  A
O1287      C1288   1.331       .  A
C1288      C1289   1.394       .  A
C1289      H1295   1.082       .  S
O1290      C1291   1.335       .  A
C1291      C1292   1.390       .  A
C1292      H1296   1.082       .  S
C1297      C1302   1.381       .  A
C1297      C1298   1.405       .  A
C1297      O1303   1.318       .  A
C1298      C1299   1.403       .  A
C1298      H1309   1.083       .  S
C1299      C1308   1.366       .  A
C1299      C1300   1.381       .  A
C1300      C1301   1.402       .  A
C1300      O1306   1.317       .  A
C1301      C1302   1.401       .  A
C1301      H1310   1.082       .  S
C1302      C1305   1.363       .  A
O1303      C1304   1.330       .  A
C1304      C1305   1.389       .  A
C1305      H1311   1.083       .  S
O1306      C1307   1.329       .  A
C1307      C1308   1.390       .  A
C1308      H1312   1.083       .  S
C1313      C1318   1.381       .  A
C1313      C1314   1.394       .  A
C1313      O1319   1.313       .  A
C1314      C1315   1.394       .  A
C1314      H1325   1.083   1_655  S
C1315      C1324   1.348       .  A
C1315      C1316   1.379       .  A
C1316      C1317   1.415       .  A
C1316      O1322   1.331       .  A
C1317      C1318   1.416       .  A
C1317      H1326   1.083       .  S
C1318      C1321   1.374       .  A
O1319      C1320   1.326       .  A
C1320      C1321   1.399       .  A
C1321      H1327   1.082       .  S
O1322      C1323   1.338       .  A
C1323      C1324   1.388       .  A
C1324      H1328   1.083       .  S
C1329      C1334   1.381       .  A
C1329      C1330   1.402       .  A
C1329      O1335   1.319       .  A
C1330      C1331   1.402       .  A
C1330      H1341   1.083       .  S
C1331      C1340   1.358       .  A
C1331      C1332   1.381       .  A
C1332      C1333   1.403       .  A
C1332      O1338   1.321       .  A
C1333      C1334   1.403       .  A
C1333      H1342   1.082       .  S
C1334      C1337   1.360       .  A
O1335      C1336   1.329       .  A
C1336      C1337   1.391       .  A
C1337      H1343   1.083       .  S
O1338      C1339   1.330       .  A
C1339      C1340   1.392       .  A
C1340      H1344   1.083       .  S
C1345      C1350   1.380       .  A
C1345      C1346   1.404       .  A
C1345      O1351   1.318       .  A
C1346      C1347   1.403       .  A
C1346      H1357   1.082       .  S
C1347      C1356   1.363       .  A
C1347      C1348   1.380       .  A
C1348      C1349   1.404       .  A
C1348      O1354   1.319       .  A
C1349      C1350   1.403       .  A
C1349      H1358   1.083       .  S
C1350      C1353   1.363       .  A
O1351      C1352   1.332       .  A
C1352      C1353   1.390       .  A
C1353      H1359   1.083       .  S
O1354      C1355   1.331       .  A
C1355      C1356   1.392       .  A
C1356      H1360   1.082       .  S
C1361      C1366   1.382       .  A
C1361      C1362   1.401       .  A
C1361      O1367   1.320       .  A
C1362      C1363   1.402       .  A
C1362      H1373   1.083       .  S
C1363      C1372   1.358       .  A
C1363      C1364   1.382       .  A
C1364      C1365   1.398   1_455  A
C1364      O1370   1.316   1_455  A
C1365      C1366   1.398   1_655  A
C1365      H1374   1.083       .  S
C1366      C1369   1.352       .  A
O1367      C1368   1.329       .  A
C1368      C1369   1.389       .  A
C1369      H1375   1.083   1_455  S
O1370      C1371   1.328   1_655  A
C1371      C1372   1.390       .  A
C1372      H1376   1.083       .  S
C1377      C1382   1.382   1_455  A
C1377      C1378   1.398       .  A
C1377      O1383   1.312       .  A
C1378      C1379   1.396   1_554  A
C1378      H1389   1.083       .  S
C1379      C1388   1.356       .  A
C1379      C1380   1.382   1_455  A
C1380      C1381   1.401       .  A
C1380      O1386   1.315       .  A
C1381      C1382   1.399   1_556  A
C1381      H1390   1.083       .  S
C1382      C1385   1.360       .  A
O1383      C1384   1.328   1_455  A
C1384      C1385   1.388       .  A
C1385      H1391   1.083       .  S
O1386      C1387   1.329   1_655  A
C1387      C1388   1.387       .  A
C1388      H1392   1.083       .  S
C1393      C1398   1.382   1_655  A
C1393      C1394   1.393       .  A
C1393      O1399   1.310       .  A
C1394      C1395   1.393   1_655  A
C1394      H1405   1.083       .  S
C1395      C1404   1.347   1_554  A
C1395      C1396   1.382       .  A
C1396      C1397   1.400       .  A
C1396      O1402   1.317   1_554  A
C1397      C1398   1.400       .  A
C1397      H1406   1.083       .  S
C1398      C1401   1.357       .  A
O1399      C1400   1.325   1_655  A
C1400      C1401   1.389       .  A
C1401      H1407   1.083       .  S
O1402      C1403   1.328       .  A
C1403      C1404   1.386       .  A
C1404      H1408   1.083   1_455  S
C1409      C1414   1.382   1_455  A
C1409      C1410   1.393       .  A
C1409      O1415   1.307       .  A
C1410      C1411   1.391       .  A
C1410      H1421   1.083       .  S
C1411      C1420   1.350       .  A
C1411      C1412   1.382   1_455  A
C1412      C1413   1.401       .  A
C1412      O1418   1.315       .  A
C1413      C1414   1.400       .  A
C1413      H1422   1.082       .  S
C1414      C1417   1.361       .  A
O1415      C1416   1.325   1_455  A
C1416      C1417   1.389       .  A
C1417      H1423   1.082       .  S
O1418      C1419   1.328   1_655  A
C1419      C1420   1.382       .  A
C1420      H1424   1.083       .  S
C1425      C1430   1.380       .  A
C1425      C1426   1.397       .  A
C1425      O1431   1.315       .  A
C1426      C1427   1.396       .  A
C1426      H1437   1.083       .  S
C1427      C1436   1.352       .  A
C1427      C1428   1.379       .  A
C1428      C1429   1.415       .  A
C1428      O1434   1.330       .  A
C1429      C1430   1.415       .  A
C1429      H1438   1.083       .  S
C1430      C1433   1.375       .  A
O1431      C1432   1.329       .  A
C1432      C1433   1.399       .  A
C1433      H1439   1.082       .  S
O1434      C1435   1.337       .  A
C1435      C1436   1.389       .  A
C1436      H1440   1.083       .  S
C1441      C1446   1.380       .  A
C1441      C1442   1.406       .  A
C1441      O1447   1.321       .  A
C1442      C1443   1.405       .  A
C1442      H1453   1.083       .  S
C1443      C1452   1.365       .  A
C1443      C1444   1.381       .  A
C1444      C1445   1.403       .  A
C1444      O1450   1.318       .  A
C1445      C1446   1.401       .  A
C1445      H1454   1.083       .  S
C1446      C1449   1.361       .  A
O1447      C1448   1.332       .  A
C1448      C1449   1.389       .  A
C1449      H1455   1.083       .  S
O1450      C1451   1.331       .  A
C1451      C1452   1.392       .  A
C1452      H1456   1.083       .  S
C1457      C1462   1.381       .  A
C1457      C1458   1.403       .  A
C1457      O1463   1.319       .  A
C1458      C1459   1.402       .  A
C1458      H1469   1.082       .  S
C1459      C1468   1.362       .  A
C1459      C1460   1.381       .  A
C1460      C1461   1.404       .  A
C1460      O1466   1.320       .  A
C1461      C1462   1.403       .  A
C1461      H1470   1.082       .  S
C1462      C1465   1.364       .  A
O1463      C1464   1.330       .  A
C1464      C1465   1.390       .  A
C1465      H1471   1.083       .  S
O1466      C1467   1.330       .  A
C1467      C1468   1.389       .  A
C1468      H1472   1.082       .  S
C1473      C1478   1.381       .  A
C1473      C1474   1.405       .  A
C1473      O1479   1.321       .  A
C1474      C1475   1.405       .  A
C1474      H1485   1.082       .  S
C1475      C1484   1.365       .  A
C1475      C1476   1.382       .  A
C1476      C1477   1.397       .  A
C1476      O1482   1.313       .  A
C1477      C1478   1.396       .  A
C1477      H1486   1.083       .  S
C1478      C1481   1.354       .  A
O1479      C1480   1.331       .  A
C1480      C1481   1.384       .  A
C1481      H1487   1.083       .  S
O1482      C1483   1.326       .  A
C1483      C1484   1.391       .  A
C1484      H1488   1.083       .  S
C1489      C1494   1.380       .  A
C1489      C1490   1.406       .  A
C1489      O1495   1.318       .  A
C1490      C1491   1.404       .  A
C1490      H1501   1.083       .  S
C1491      C1500   1.366       .  A
C1491      C1492   1.380       .  A
C1492      C1493   1.402       .  A
C1492      O1498   1.315       .  A
C1493      C1494   1.401       .  A
C1493      H1502   1.083       .  S
C1494      C1497   1.364       .  A
O1495      C1496   1.333       .  A
C1496      C1497   1.391       .  A
C1497      H1503   1.083       .  S
O1498      C1499   1.330       .  A
C1499      C1500   1.392       .  A
C1500      H1504   1.083       .  S
C1505      C1510   1.381       .  A
C1505      C1506   1.403       .  A
C1505      O1511   1.320       .  A
C1506      C1507   1.402       .  A
C1506      H1517   1.083       .  S
C1507      C1516   1.360       .  A
C1507      C1508   1.380       .  A
C1508      C1509   1.406       .  A
C1508      O1514   1.322       .  A
C1509      C1510   1.406       .  A
C1509      H1518   1.083       .  S
C1510      C1513   1.364       .  A
O1511      C1512   1.331       .  A
C1512      C1513   1.393       .  A
C1513      H1519   1.083       .  S
O1514      C1515   1.333       .  A
C1515      C1516   1.391       .  A
C1516      H1520   1.083       .  S
C1521      C1526   1.381       .  A
C1521      C1522   1.398       .  A
C1521      O1527   1.315       .  A
C1522      C1523   1.398       .  A
C1522      H1533   1.083       .  S
C1523      C1532   1.356       .  A
C1523      C1524   1.381       .  A
C1524      C1525   1.408       .  A
C1524      O1530   1.324       .  A
C1525      C1526   1.408       .  A
C1525      H1534   1.082       .  S
C1526      C1529   1.367       .  A
O1527      C1528   1.328       .  A
C1528      C1529   1.393       .  A
C1529      H1535   1.083       .  S
O1530      C1531   1.332       .  A
C1531      C1532   1.386       .  A
C1532      H1536   1.083       .  S
C1537      C1542   1.382       .  A
C1537      C1538   1.401       .  A
C1537      O1543   1.319       .  A
C1538      C1539   1.401       .  A
C1538      H1549   1.082       .  S
C1539      C1548   1.358       .  A
C1539      C1540   1.381       .  A
C1540      C1541   1.404       .  A
C1540      O1546   1.321       .  A
C1541      C1542   1.404       .  A
C1541      H1550   1.083       .  S
C1542      C1545   1.361       .  A
O1543      C1544   1.329       .  A
C1544      C1545   1.392       .  A
C1545      H1551   1.083       .  S
O1546      C1547   1.331       .  A
C1547      C1548   1.390       .  A
C1548      H1552   1.083       .  S
C1553      C1558   1.380       .  A
C1553      C1554   1.413       .  A
C1553      O1559   1.328       .  A
C1554      C1555   1.413       .  A
C1554      H1565   1.083       .  S
C1555      C1564   1.374       .  A
C1555      C1556   1.380       .  A
C1556      C1557   1.396       .  A
C1556      O1562   1.312       .  A
C1557      C1558   1.395       .  A
C1557      H1566   1.083       .  S
C1558      C1561   1.352       .  A
O1559      C1560   1.336       .  A
C1560      C1561   1.388       .  A
C1561      H1567   1.083       .  S
O1562      C1563   1.327       .  A
C1563      C1564   1.398       .  A
C1564      H1568   1.083       .  S
C1569      C1574   1.381       .  A
C1569      C1570   1.404       .  A
C1569      O1575   1.318       .  A
C1570      C1571   1.403       .  A
C1570      H1581   1.083       .  S
C1571      C1580   1.364       .  A
C1571      C1572   1.381       .  A
C1572      C1573   1.400       .  A
C1572      O1578   1.315       .  A
C1573      C1574   1.398       .  A
C1573      H1582   1.083       .  S
C1574      C1577   1.359       .  A
O1575      C1576   1.331       .  A
C1576      C1577   1.389       .  A
C1577      H1583   1.083       .  S
O1578      C1579   1.329       .  A
C1579      C1580   1.391       .  A
C1580      H1584   1.083       .  S
C1585      C1590   1.381       .  A
C1585      C1586   1.399       .  A
C1585      O1591   1.316       .  A
C1586      C1587   1.399       .  A
C1586      H1597   1.083       .  S
C1587      C1596   1.356       .  A
C1587      C1588   1.381       .  A
C1588      C1589   1.408       .  A
C1588      O1594   1.325       .  A
C1589      C1590   1.408       .  A
C1589      H1598   1.082       .  S
C1590      C1593   1.368       .  A
O1591      C1592   1.329       .  A
C1592      C1593   1.393       .  A
C1593      H1599   1.082   1_556  S
O1594      C1595   1.333       .  A
C1595      C1596   1.388       .  A
C1596      H1600   1.083       .  S
C1601      C1606   1.381       .  A
C1601      C1602   1.401       .  A
C1601      O1607   1.317       .  A
C1602      C1603   1.401       .  A
C1602      H1613   1.083       .  S
C1603      C1612   1.359       .  A
C1603      C1604   1.380       .  A
C1604      C1605   1.406       .  A
C1604      O1610   1.323       .  A
C1605      C1606   1.406       .  A
C1605      H1614   1.082       .  S
C1606      C1609   1.365       .  A
O1607      C1608   1.329       .  A
C1608      C1609   1.392       .  A
C1609      H1615   1.082       .  S
O1610      C1611   1.333       .  A
C1611      C1612   1.391       .  A
C1612      H1616   1.083       .  S
C1617      C1622   1.382       .  A
C1617      C1618   1.398       .  A
C1617      O1623   1.313       .  A
C1618      C1619   1.397       .  A
C1618      H1629   1.083       .  S
C1619      C1628   1.355       .  A
C1619      C1620   1.382       .  A
C1620      C1621   1.400       .  A
C1620      O1626   1.316       .  A
C1621      C1622   1.399       .  A
C1621      H1630   1.083       .  S
C1622      C1625   1.359       .  A
O1623      C1624   1.326       .  A
C1624      C1625   1.386       .  A
C1625      H1631   1.083       .  S
O1626      C1627   1.329       .  A
C1627      C1628   1.389       .  A
C1628      H1632   1.083       .  S
C1633      C1638   1.381       .  A
C1633      C1634   1.399       .  A
C1633      O1639   1.311       .  A
C1634      C1635   1.396       .  A
C1634      H1645   1.083       .  S
C1635      C1644   1.357       .  A
C1635      C1636   1.381       .  A
C1636      C1637   1.402       .  A
C1636      O1642   1.316       .  A
C1637      C1638   1.400       .  A
C1637      H1646   1.083       .  S
C1638      C1641   1.364       .  A
O1639      C1640   1.328       .  A
C1640      C1641   1.389       .  A
C1641      H1647   1.082       .  S
O1642      C1643   1.329       .  A
C1643      C1644   1.389       .  A
C1644      H1648   1.083       .  S
C1649      C1654   1.381       .  A
C1649      C1650   1.404       .  A
C1649      O1655   1.321       .  A
C1650      C1651   1.404       .  A
C1650      H1661   1.083       .  S
C1651      C1660   1.360       .  A
C1651      C1652   1.381       .  A
C1652      C1653   1.403       .  A
C1652      O1658   1.321       .  A
C1653      C1654   1.403       .  A
C1653      H1662   1.083       .  S
C1654      C1657   1.360       .  A
O1655      C1656   1.331       .  A
C1656      C1657   1.391       .  A
C1657      H1663   1.083       .  S
O1658      C1659   1.331       .  A
C1659      C1660   1.393       .  A
C1660      H1664   1.083       .  S
C1665      C1670   1.381       .  A
C1665      C1666   1.403       .  A
C1665      O1671   1.320       .  A
C1666      C1667   1.403       .  A
C1666      H1677   1.082       .  S
C1667      C1676   1.360       .  A
C1667      C1668   1.382       .  A
C1668      C1669   1.395       .  A
C1668      O1674   1.313       .  A
C1669      C1670   1.395       .  A
C1669      H1678   1.083       .  S
C1670      C1673   1.350       .  A
O1671      C1672   1.331       .  A
C1672      C1673   1.388       .  A
C1673      H1679   1.083       .  S
O1674      C1675   1.325       .  A
C1675      C1676   1.388       .  A
C1676      H1680   1.083       .  S
C1681      C1686   1.382       .  A
C1681      C1682   1.392       .  A
C1681      O1687   1.310       .  A
C1682      C1683   1.392       .  A
C1682      H1693   1.083       .  S
C1683      C1692   1.347       .  A
C1683      C1684   1.381       .  A
C1684      C1685   1.404       .  A
C1684      O1690   1.320       .  A
C1685      C1686   1.404       .  A
C1685      H1694   1.083       .  S
C1686      C1689   1.361       .  A
O1687      C1688   1.324       .  A
C1688      C1689   1.393       .  A
C1689      H1695   1.083       .  S
O1690      C1691   1.330       .  A
C1691      C1692   1.386       .  A
C1692      H1696   1.083       .  S
C1697      C1702   1.381       .  A
C1697      C1698   1.397       .  A
C1697      O1703   1.313       .  A
C1698      C1699   1.396       .  A
C1698      H1709   1.082       .  S
C1699      C1708   1.353       .  A
C1699      C1700   1.380       .  A
C1700      C1701   1.410       .  A
C1700      O1706   1.325       .  A
C1701      C1702   1.409       .  A
C1701      H1710   1.082   1_554  S
C1702      C1705   1.369       .  A
O1703      C1704   1.328       .  A
C1704      C1705   1.395       .  A
C1705      H1711   1.082       .  S
O1706      C1707   1.334       .  A
C1707      C1708   1.389       .  A
C1708      H1712   1.083       .  S
C1713      C1718   1.380       .  A
C1713      C1714   1.404       .  A
C1713      O1719   1.318       .  A
C1714      C1715   1.403       .  A
C1714      H1725   1.083       .  S
C1715      C1724   1.364       .  A
C1715      C1716   1.381       .  A
C1716      C1717   1.403       .  A
C1716      O1722   1.317       .  A
C1717      C1718   1.402       .  A
C1717      H1726   1.082       .  S
C1718      C1721   1.364       .  A
O1719      C1720   1.331       .  A
C1720      C1721   1.391       .  A
C1721      H1727   1.082       .  S
O1722      C1723   1.330       .  A
C1723      C1724   1.391       .  A
C1724      H1728   1.083       .  S
C1729      C1734   1.380       .  A
C1729      C1730   1.406       .  A
C1729      O1735   1.321       .  A
C1730      C1731   1.405       .  A
C1730      H1741   1.082       .  S
C1731      C1740   1.366       .  A
C1731      C1732   1.380       .  A
C1732      C1733   1.403       .  A
C1732      O1738   1.318       .  A
C1733      C1734   1.402       .  A
C1733      H1742   1.083       .  S
C1734      C1737   1.362       .  A
O1735      C1736   1.333       .  A
C1736      C1737   1.390       .  A
C1737      H1743   1.083       .  S
O1738      C1739   1.331       .  A
C1739      C1740   1.393       .  A
C1740      H1744   1.082       .  S
C1745      C1750   1.381       .  A
C1745      C1746   1.408       .  A
C1745      O1751   1.322       .  A
C1746      C1747   1.407       .  A
C1746      H1757   1.082       .  S
C1747      C1756   1.369       .  A
C1747      C1748   1.381       .  A
C1748      C1749   1.397       .  A
C1748      O1754   1.313       .  A
C1749      C1750   1.396       .  A
C1749      H1758   1.083       .  S
C1750      C1753   1.354       .  A
O1751      C1752   1.332       .  A
C1752      C1753   1.387       .  A
C1753      H1759   1.083       .  S
O1754      C1755   1.327       .  A
C1755      C1756   1.392       .  A
C1756      H1760   1.082       .  S
C1761      C1766   1.380       .  A
C1761      C1762   1.405       .  A
C1761      O1767   1.318       .  A
C1762      C1763   1.403       .  A
C1762      H1773   1.083       .  S
C1763      C1772   1.364       .  A
C1763      C1764   1.381       .  A
C1764      C1765   1.401       .  A
C1764      O1770   1.316       .  A
C1765      C1766   1.400       .  A
C1765      H1774   1.083       .  S
C1766      C1769   1.361       .  A
O1767      C1768   1.332       .  A
C1768      C1769   1.389       .  A
C1769      H1775   1.083       .  S
O1770      C1771   1.329       .  A
C1771      C1772   1.392       .  A
C1772      H1776   1.083       .  S
C1777      C1782   1.382       .  A
C1777      C1778   1.398       .  A
C1777      O1783   1.314       .  A
C1778      C1779   1.396       .  A
C1778      H1789   1.083       .  S
C1779      C1788   1.355       .  A
C1779      C1780   1.382       .  A
C1780      C1781   1.406       .  A
C1780      O1786   1.322       .  A
C1781      C1782   1.406       .  A
C1781      H1790   1.082       .  S
C1782      C1785   1.367       .  A
O1783      C1784   1.327       .  A
C1784      C1785   1.392       .  A
C1785      H1791   1.083       .  S
O1786      C1787   1.331       .  A
C1787      C1788   1.386       .  A
C1788      H1792   1.083       .  S
C1793      C1798   1.381       .  A
C1793      C1794   1.395       .  A
C1793      O1799   1.312       .  A
C1794      C1795   1.394       .  A
C1794      H1805   1.083       .  S
C1795      C1804   1.350       .  A
C1795      C1796   1.379       .  A
C1796      C1797   1.414       .  A
C1796      O1802   1.329       .  A
C1797      C1798   1.414       .  A
C1797      H1806   1.082       .  S
C1798      C1801   1.374       .  A
O1799      C1800   1.327       .  A
C1800      C1801   1.398       .  A
C1801      H1807   1.082       .  S
O1802      C1803   1.337       .  A
C1803      C1804   1.388       .  A
C1804      H1808   1.083       .  S
C1809      C1814   1.380       .  A
C1809      C1810   1.403       .  A
C1809      O1815   1.319       .  A
C1810      C1811   1.403       .  A
C1810      H1821   1.082       .  S
C1811      C1820   1.362       .  A
C1811      C1812   1.380       .  A
C1812      C1813   1.405       .  A
C1812      O1818   1.321       .  A
C1813      C1814   1.405       .  A
C1813      H1822   1.082       .  S
C1814      C1817   1.363       .  A
O1815      C1816   1.330       .  A
C1816      C1817   1.393       .  A
C1817      H1823   1.082       .  S
O1818      C1819   1.332       .  A
C1819      C1820   1.392       .  A
C1820      H1824   1.082       .  S
C1825      C1830   1.381       .  A
C1825      C1826   1.398       .  A
C1825      O1831   1.315       .  A
C1826      C1827   1.397       .  A
C1826      H1837   1.083       .  S
C1827      C1836   1.355       .  A
C1827      C1828   1.381       .  A
C1828      C1829   1.409       .  A
C1828      O1834   1.325       .  A
C1829      C1830   1.409       .  A
C1829      H1838   1.082       .  S
C1830      C1833   1.368       .  A
O1831      C1832   1.328       .  A
C1832      C1833   1.394       .  A
C1833      H1839   1.082       .  S
O1834      C1835   1.333       .  A
C1835      C1836   1.386       .  A
C1836      H1840   1.083       .  S
C1841      C1846   1.380       .  A
C1841      C1842   1.406       .  A
C1841      O1847   1.324       .  A
C1842      C1843   1.406       .  A
C1842      H1853   1.082       .  S
C1843      C1852   1.365       .  A
C1843      C1844   1.381       .  A
C1844      C1845   1.403       .  A
C1844      O1850   1.319       .  A
C1845      C1846   1.403       .  A
C1845      H1854   1.083       .  S
C1846      C1849   1.359       .  A
O1847      C1848   1.333       .  A
C1848      C1849   1.393       .  A
C1849      H1855   1.083       .  S
O1850      C1851   1.330       .  A
C1851      C1852   1.393       .  A
C1852      H1856   1.083       .  S
C1857      C1862   1.382       .  A
C1857      C1858   1.402       .  A
C1857      O1863   1.316       .  A
C1858      C1859   1.401       .  A
C1858      H1869   1.082       .  S
C1859      C1868   1.362   1_554  A
C1859      C1860   1.382       .  A
C1860      C1861   1.398       .  A
C1860      O1866   1.311   1_554  A
C1861      C1862   1.396       .  A
C1861      H1870   1.083       .  S
C1862      C1865   1.356       .  A
O1863      C1864   1.329       .  A
C1864      C1865   1.387       .  A
C1865      H1871   1.083       .  S
O1866      C1867   1.327       .  A
C1867      C1868   1.389       .  A
C1868      H1872   1.082       .  S
C1873      C1878   1.381       .  A
C1873      C1874   1.399       .  A
C1873      O1879   1.312       .  A
C1874      C1875   1.397       .  A
C1874      H1885   1.083       .  S
C1875      C1884   1.357       .  A
C1875      C1876   1.382       .  A
C1876      C1877   1.401       .  A
C1876      O1882   1.314       .  A
C1877      C1878   1.399       .  A
C1877      H1886   1.083       .  S
C1878      C1881   1.361       .  A
O1879      C1880   1.328       .  A
C1880      C1881   1.389       .  A
C1881      H1887   1.083       .  S
O1882      C1883   1.328       .  A
C1883      C1884   1.388       .  A
C1884      H1888   1.083       .  S
C1889      C1894   1.380       .  A
C1889      C1890   1.406       .  A
C1889      O1895   1.323       .  A
C1890      C1891   1.407       .  A
C1890      H1901   1.082       .  S
C1891      C1900   1.365       .  A
C1891      C1892   1.381       .  A
C1892      C1893   1.402       .  A
C1892      O1898   1.319       .  A
C1893      C1894   1.402       .  A
C1893      H1902   1.083       .  S
C1894      C1897   1.359       .  A
O1895      C1896   1.332       .  A
C1896      C1897   1.392       .  A
C1897      H1903   1.083       .  S
O1898      C1899   1.330       .  A
C1899      C1900   1.395       .  A
C1900      H1904   1.082       .  S
C1905      C1910   1.381       .  A
C1905      C1906   1.401       .  A
C1905      O1911   1.315       .  A
C1906      C1907   1.400       .  A
C1906      H1917   1.083       .  S
C1907      C1916   1.362       .  A
C1907      C1908   1.381       .  A
C1908      C1909   1.400       .  A
C1908      O1914   1.313       .  A
C1909      C1910   1.398       .  A
C1909      H1918   1.083       .  S
C1910      C1913   1.358       .  A
O1911      C1912   1.328       .  A
C1912      C1913   1.390       .  A
C1913      H1919   1.083       .  S
O1914      C1915   1.330       .  A
C1915      C1916   1.389       .  A
C1916      H1920   1.083       .  S
C1921      C1926   1.381       .  A
C1921      C1922   1.399   1_554  A
C1921      O1927   1.314       .  A
C1922      C1923   1.398       .  A
C1922      H1933   1.083   1_556  S
C1923      C1932   1.357       .  A
C1923      C1924   1.382       .  A
C1924      C1925   1.402       .  A
C1924      O1930   1.318       .  A
C1925      C1926   1.401   1_556  A
C1925      H1934   1.083       .  S
C1926      C1929   1.360       .  A
O1927      C1928   1.328       .  A
C1928      C1929   1.391       .  A
C1929      H1935   1.083       .  S
O1930      C1931   1.329       .  A
C1931      C1932   1.386       .  A
C1932      H1936   1.083       .  S
C1937      C1942   1.381       .  A
C1937      C1938   1.397       .  A
C1937      O1943   1.313       .  A
C1938      C1939   1.396       .  A
C1938      H1949   1.083       .  S
C1939      C1948   1.352       .  A
C1939      C1940   1.380       .  A
C1940      C1941   1.409       .  A
C1940      O1946   1.326       .  A
C1941      C1942   1.409       .  A
C1941      H1950   1.082       .  S
C1942      C1945   1.369       .  A
O1943      C1944   1.328       .  A
C1944      C1945   1.395       .  A
C1945      H1951   1.082       .  S
O1946      C1947   1.334       .  A
C1947      C1948   1.389       .  A
C1948      H1952   1.083       .  S
C1953      C1958   1.380       .  A
C1953      C1954   1.406       .  A
C1953      O1959   1.320       .  A
C1954      C1955   1.405       .  A
C1954      H1965   1.083       .  S
C1955      C1964   1.365       .  A
C1955      C1956   1.380       .  A
C1956      C1957   1.404       .  A
C1956      O1962   1.319       .  A
C1957      C1958   1.403       .  A
C1957      H1966   1.083       .  S
C1958      C1961   1.364       .  A
O1959      C1960   1.333       .  A
C1960      C1961   1.392       .  A
C1961      H1967   1.083       .  S
O1962      C1963   1.331       .  A
C1963      C1964   1.393       .  A
C1964      H1968   1.083       .  S
C1969      C1974   1.381       .  A
C1969      C1970   1.409       .  A
C1969      O1975   1.325       .  A
C1970      C1971   1.409       .  A
C1970      H1981   1.082       .  S
C1971      C1980   1.369       .  A
C1971      C1972   1.381       .  A
C1972      C1973   1.399       .  A
C1972      O1978   1.315       .  A
C1973      C1974   1.398       .  A
C1973      H1982   1.083       .  S
C1974      C1977   1.357       .  A
O1975      C1976   1.332       .  A
C1976      C1977   1.387       .  A
C1977      H1983   1.083   1_556  S
O1978      C1979   1.328       .  A
C1979      C1980   1.395       .  A
C1980      H1984   1.083       .  S
C1985      C1990   1.380       .  A
C1985      C1986   1.406       .  A
C1985      O1991   1.321       .  A
C1986      C1987   1.405       .  A
C1986      H1997   1.083       .  S
C1987      C1996   1.364       .  A
C1987      C1988   1.381       .  A
C1988      C1989   1.402       .  A
C1988      O1994   1.318       .  A
C1989      C1990   1.401       .  A
C1989      H1998   1.083       .  S
C1990      C1993   1.360       .  A
O1991      C1992   1.333       .  A
C1992      C1993   1.390       .  A
C1993      H1999   1.083       .  S
O1994      C1995   1.330       .  A
C1995      C1996   1.393       .  A
C1996      H2000   1.083       .  S
C2001      C2006   1.380   1_556  A
C2001      C2002   1.399       .  A
C2001      O2007   1.315       .  A
C2002      C2003   1.398       .  A
C2002      H2013   1.082       .  S
C2003      C2012   1.356   1_556  A
C2003      C2004   1.379   1_556  A
C2004      C2005   1.412       .  A
C2004      O2010   1.327       .  A
C2005      C2006   1.411       .  A
C2005      H2014   1.083       .  S
C2006      C2009   1.372       .  A
O2007      C2008   1.329       .  A
C2008      C2009   1.395   1_556  A
C2009      H2015   1.083       .  S
O2010      C2011   1.336       .  A
C2011      C2012   1.391       .  A
C2012      H2016   1.082   1_554  S
C2017      C2022   1.380       .  A
C2017      C2018   1.405       .  A
C2017      O2023   1.316       .  A
C2018      C2019   1.402       .  A
C2018      H2029   1.083       .  S
C2019      C2028   1.368       .  A
C2019      C2020   1.380       .  A
C2020      C2021   1.404       .  A
C2020      O2026   1.315       .  A
C2021      C2022   1.401       .  A
C2021      H2030   1.083       .  S
C2022      C2025   1.365       .  A
O2023      C2024   1.331       .  A
C2024      C2025   1.391       .  A
C2025      H2031   1.083       .  S
O2026      C2027   1.331       .  A
C2027      C2028   1.392       .  A
C2028      H2032   1.082       .  S
C2033      C2038   1.381       .  A
C2033      C2034   1.402       .  A
C2033      O2039   1.320       .  A
C2034      C2035   1.402       .  A
C2034      H2045   1.083       .  S
C2035      C2044   1.359       .  A
C2035      C2036   1.382       .  A
C2036      C2037   1.403       .  A
C2036      O2042   1.320       .  A
C2037      C2038   1.403       .  A
C2037      H2046   1.083       .  S
C2038      C2041   1.362       .  A
O2039      C2040   1.330       .  A
C2040      C2041   1.390       .  A
C2041      H2047   1.083       .  S
O2042      C2043   1.330       .  A
C2043      C2044   1.388       .  A
C2044      H2048   1.083       .  S
C2049      C2054   1.381       .  A
C2049      C2050   1.402       .  A
C2049      O2055   1.317       .  A
C2050      C2051   1.401       .  A
C2050      H2061   1.082       .  S
C2051      C2060   1.361       .  A
C2051      C2052   1.380       .  A
C2052      C2053   1.403       .  A
C2052      O2058   1.318       .  A
C2053      C2054   1.401       .  A
C2053      H2062   1.082       .  S
C2054      C2057   1.361       .  A
O2055      C2056   1.330       .  A
C2056      C2057   1.389       .  A
C2057      H2063   1.082       .  S
O2058      C2059   1.331       .  A
C2059      C2060   1.391       .  A
C2060      H2064   1.082       .  S
C2065      C2070   1.382       .  A
C2065      C2066   1.400       .  A
C2065      O2071   1.314       .  A
C2066      C2067   1.399       .  A
C2066      H2077   1.083       .  S
C2067      C2076   1.360       .  A
C2067      C2068   1.382       .  A
C2068      C2069   1.398       .  A
C2068      O2074   1.312       .  A
C2069      C2070   1.396       .  A
C2069      H2078   1.083       .  S
C2070      C2073   1.357       .  A
O2071      C2072   1.327       .  A
C2072      C2073   1.385       .  A
C2073      H2079   1.083       .  S
O2074      C2075   1.328       .  A
C2075      C2076   1.390       .  A
C2076      H2080   1.083       .  S
C2081      C2086   1.380       .  A
C2081      C2082   1.407       .  A
C2081      O2087   1.324       .  A
C2082      C2083   1.407       .  A
C2082      H2093   1.082       .  S
C2083      C2092   1.364       .  A
C2083      C2084   1.382       .  A
C2084      C2085   1.395       .  A
C2084      O2090   1.313       .  A
C2085      C2086   1.396       .  A
C2085      H2094   1.083       .  S
C2086      C2089   1.351       .  A
O2087      C2088   1.334       .  A
C2088      C2089   1.390       .  A
C2089      H2095   1.083       .  S
O2090      C2091   1.326       .  A
C2091      C2092   1.392       .  A
C2092      H2096   1.082       .  S
C2097      C2102   1.381       .  A
C2097      C2098   1.399       .  A
C2097      O2103   1.317       .  A
C2098      C2099   1.399       .  A
C2098      H2109   1.083       .  S
C2099      C2108   1.354       .  A
C2099      C2100   1.381       .  A
C2100      C2101   1.409       .  A
C2100      O2106   1.327       .  A
C2101      C2102   1.410       .  A
C2101      H2110   1.082       .  S
C2102      C2105   1.369       .  A
O2103      C2104   1.329       .  A
C2104      C2105   1.394       .  A
C2105      H2111   1.083       .  S
O2106      C2107   1.333       .  A
C2107      C2108   1.388       .  A
C2108      H2112   1.083       .  S
C2113      C2118   1.381       .  A
C2113      C2114   1.402       .  A
C2113      O2119   1.317       .  A
C2114      C2115   1.401       .  A
C2114      H2125   1.082       .  S
C2115      C2124   1.360       .  A
C2115      C2116   1.382       .  A
C2116      C2117   1.398       .  A
C2116      O2122   1.315       .  A
C2117      C2118   1.397       .  A
C2117      H2126   1.083       .  S
C2118      C2121   1.355       .  A
O2119      C2120   1.330       .  A
C2120      C2121   1.388       .  A
C2121      H2127   1.083       .  S
O2122      C2123   1.328       .  A
C2123      C2124   1.390       .  A
C2124      H2128   1.083       .  S
C2129      C2134   1.381       .  A
C2129      C2130   1.405       .  A
C2129      O2135   1.321       .  A
C2130      C2131   1.405       .  A
C2130      H2141   1.083       .  S
C2131      C2140   1.363       .  A
C2131      C2132   1.381       .  A
C2132      C2133   1.402       .  A
C2132      O2138   1.319       .  A
C2133      C2134   1.401       .  A
C2133      H2142   1.083       .  S
C2134      C2137   1.359       .  A
O2135      C2136   1.332       .  A
C2136      C2137   1.390       .  A
C2137      H2143   1.083       .  S
O2138      C2139   1.330       .  A
C2139      C2140   1.393       .  A
C2140      H2144   1.083       .  S
C2145      C2150   1.382       .  A
C2145      C2146   1.402       .  A
C2145      O2151   1.317       .  A
C2146      C2147   1.401       .  A
C2146      H2157   1.082       .  S
C2147      C2156   1.363       .  A
C2147      C2148   1.381       .  A
C2148      C2149   1.399       .  A
C2148      O2154   1.312       .  A
C2149      C2150   1.397       .  A
C2149      H2158   1.083       .  S
C2150      C2153   1.357       .  A
O2151      C2152   1.328       .  A
C2152      C2153   1.386       .  A
C2153      H2159   1.083       .  S
O2154      C2155   1.328       .  A
C2155      C2156   1.390       .  A
C2156      H2160   1.082       .  S
C2161      C2166   1.381       .  A
C2161      C2162   1.404       .  A
C2161      O2167   1.319       .  A
C2162      C2163   1.404       .  A
C2162      H2173   1.082       .  S
C2163      C2172   1.362       .  A
C2163      C2164   1.382       .  A
C2164      C2165   1.391       .  A
C2164      O2170   1.308       .  A
C2165      C2166   1.391       .  A
C2165      H2174   1.083       .  S
C2166      C2169   1.347       .  A
O2167      C2168   1.331       .  A
C2168      C2169   1.385       .  A
C2169      H2175   1.083       .  S
O2170      C2171   1.323       .  A
C2171      C2172   1.391       .  A
C2172      H2176   1.083       .  S
C2177      C2182   1.380       .  A
C2177      C2178   1.409       .  A
C2177      O2183   1.324       .  A
C2178      C2179   1.409       .  A
C2178      H2189   1.082       .  S
C2179      C2188   1.370       .  A
C2179      C2180   1.381       .  A
C2180      C2181   1.395       .  A
C2180      O2186   1.310       .  A
C2181      C2182   1.394       .  A
C2181      H2190   1.083       .  S
C2182      C2185   1.351       .  A
O2183      C2184   1.334       .  A
C2184      C2185   1.388       .  A
C2185      H2191   1.083       .  S
O2186      C2187   1.327       .  A
C2187      C2188   1.394       .  A
C2188      H2192   1.082       .  S
C2193      C2198   1.381       .  A
C2193      C2194   1.401       .  A
C2193      O2199   1.318       .  A
C2194      C2195   1.401       .  A
C2194      H2205   1.083       .  S
C2195      C2204   1.357       .  A
C2195      C2196   1.381       .  A
C2196      C2197   1.408       .  A
C2196      O2202   1.325       .  A
C2197      C2198   1.408       .  A
C2197      H2206   1.082       .  S
C2198      C2201   1.367       .  A
O2199      C2200   1.330       .  A
C2200      C2201   1.392       .  A
C2201      H2207   1.082       .  S
O2202      C2203   1.333       .  A
C2203      C2204   1.388       .  A
C2204      H2208   1.083       .  S
C2209      C2214   1.381       .  A
C2209      C2210   1.403       .  A
C2209      O2215   1.321       .  A
C2210      C2211   1.403       .  A
C2210      H2221   1.083       .  S
C2211      C2220   1.359       .  A
C2211      C2212   1.381       .  A
C2212      C2213   1.402       .  A
C2212      O2218   1.320       .  A
C2213      C2214   1.403       .  A
C2213      H2222   1.082       .  S
C2214      C2217   1.359       .  A
O2215      C2216   1.331       .  A
C2216      C2217   1.392       .  A
C2217      H2223   1.083       .  S
O2218      C2219   1.330       .  A
C2219      C2220   1.392       .  A
C2220      H2224   1.083       .  S
C2225      C2230   1.380       .  A
C2225      C2226   1.403       .  A
C2225      O2231   1.317       .  A
C2226      C2227   1.402       .  A
C2226      H2237   1.083       .  S
C2227      C2236   1.362       .  A
C2227      C2228   1.381       .  A
C2228      C2229   1.403       .  A
C2228      O2234   1.317       .  A
C2229      C2230   1.401       .  A
C2229      H2238   1.083       .  S
C2230      C2233   1.362       .  A
O2231      C2232   1.331       .  A
C2232      C2233   1.390       .  A
C2233      H2239   1.082       .  S
O2234      C2235   1.331       .  A
C2235      C2236   1.390       .  A
C2236      H2240   1.083       .  S
