geometry optimzed in LAMMPS
_audit_creation_date              2020-12-01 
_audit_creation_method            'lammps2cif' 
_symmetry_space_group_name_H-M    'P1' 
_symmetry_Int_Tables_number       1 
_symmetry_cell_setting            triclinic 
loop_ 
_symmetry_equiv_pos_as_xyz 
  x,y,z 
_cell_length_a                    52.04076571 
_cell_length_b                    51.157000029952464 
_cell_length_c                    37.73875397056869 
_cell_angle_alpha                 89.98048938169256 
_cell_angle_beta                  89.74464775577069 
_cell_angle_gamma                 89.63450454402313 
loop_ 
_atom_site_label 
_atom_site_type_symbol 
_atom_site_fract_x 
_atom_site_fract_y 
_atom_site_fract_z 
_atom_site_charge 
O1          O  0.86520318  0.79754936  0.38198901    -0.82900
C2          C  0.84284419  0.80812295  0.24217668     0.96400
O3          O  0.82860591  0.79686162  0.26474847    -0.72100
O4          O  0.84906622  0.76348661  0.30844487    -0.75600
Al5        Al  0.82842909  0.79417058  0.31426543     1.49000
C6          C  0.87230881  0.75812264  0.31393243     0.91700
O7          O  0.90529415  0.81775767  0.30551268    -0.81900
O8          O  0.85060850  0.86634827  0.33835296    -0.75400
Al9        Al  0.88250090  0.80942213  0.34221115     1.90100
O10         O  0.88922671  0.85529624  0.29333337    -0.74500
O11         O  0.81809083  0.84930067  0.28436878    -0.74300
O12         O  0.85707545  0.82767982  0.24986491    -0.80000
O13         O  0.80098835  0.81994502  0.31768422    -0.78200
O14         O  0.85448023  0.81659708  0.31753109    -1.14300
O15         O  0.82630337  0.78732458  0.36394340    -0.73500
C16         C  0.84430659  0.78596623  0.38645048     0.97200
C17         C  0.90839855  0.84061510  0.29539186     0.93600
Al18       Al  0.85363972  0.84695755  0.29388021     1.55600
O19         O  0.88723962  0.77512163  0.32564746    -0.78200
C20         C  0.79855929  0.83702644  0.29359141     0.97700
C21         C  0.86707207  0.86332946  0.36332567     0.92600
O22         O  0.88224589  0.84366160  0.36394152    -0.83500
O23         O  0.66162742  0.80026381  0.09784394    -0.82900
C24         C  0.66238580  0.78992755  0.24252024     0.96400
O25         O  0.68132303  0.78510747  0.22273143    -0.72100
O26         O  0.66373393  0.75498922  0.17378129    -0.75600
Al27       Al  0.68431414  0.78565035  0.17332897     1.49000
C28         C  0.64402265  0.74893524  0.15640916     0.91700
O29         O  0.60483436  0.80290449  0.15922831    -0.81900
O30         O  0.65497130  0.85978512  0.16060435    -0.75400
Al31       Al  0.63508003  0.80229365  0.13130218     1.90100
O32         O  0.61474965  0.83520182  0.19351748    -0.74500
O33         O  0.68606721  0.83794623  0.21204035    -0.74300
O34         O  0.64634343  0.80794085  0.23494074    -0.80000
O35         O  0.70927766  0.81377273  0.17646344    -0.78200
O36         O  0.65697841  0.80709982  0.16692136    -1.14300
O37         O  0.69215326  0.77954571  0.12410713    -0.73500
C38         C  0.67664245  0.78103188  0.09864773     0.97200
C39         C  0.59820943  0.82006165  0.18107974     0.93600
Al40       Al  0.65118829  0.83312238  0.19743028     1.55600
O41         O  0.63307471  0.76560604  0.13700876    -0.78200
C42         C  0.70781939  0.82951999  0.20257602     0.97700
C43         C  0.64323089  0.85916351  0.13092848     0.92600
O44         O  0.63293030  0.83838617  0.11987729    -0.83500
O45         O  0.37528245  0.84365003  0.36891166    -0.82900
C46         C  0.34153439  0.81074603  0.99810209     0.96400
O47         O  0.35504763  0.82949030  0.48637867    -0.72100
O48         O  0.38526144  0.85400033  0.43938817    -0.75600
Al49       Al  0.34914766  0.84517172  0.44104238     1.49000
C50         C  0.40526852  0.84051686  0.43355829     0.91700
O51         O  0.38462096  0.77349237  0.40028944    -0.81900
O52         O  0.32987671  0.77347679  0.38274314    -0.75400
Al53       Al  0.37730257  0.80910445  0.38797836     1.90100
O54         O  0.35688742  0.76490407  0.44248073    -0.74500
O55         O  0.30075640  0.80894285  0.41963730    -0.74300
O56         O  0.32824838  0.79676083  0.47800148    -0.80000
O57         O  0.31232695  0.84332668  0.44969509    -0.78200
O58         O  0.35218964  0.81417593  0.41925917    -1.14300
O59         O  0.34349218  0.86370379  0.39704891    -0.73500
C60         C  0.35987589  0.86278135  0.37197192     0.97200
C61         C  0.37620018  0.75861548  0.42421800     0.93600
Al62       Al  0.33054754  0.78840953  0.42954914     1.55600
O63         O  0.40320701  0.81811952  0.42031431    -0.78200
C64         C  0.29513934  0.82707867  0.44125678     0.97700
C65         C  0.34139356  0.77867242  0.35401968     0.92600
O66         O  0.35475525  0.79896240  0.35171529    -0.83500
O67         O  0.13724837  0.83109392  0.12947092    -0.82900
C68         C  0.16268689  0.80335606  0.49291642     0.96400
O69         O  0.14972595  0.82148469  0.00713281    -0.72100
O70         O  0.12179018  0.84392306  0.05921024    -0.75600
Al71       Al  0.15775807  0.83551328  0.05321726     1.49000
C72         C  0.10246094  0.83031309  0.06743382     0.91700
O73         O  0.12595376  0.76293765  0.09386698    -0.81900
O74         O  0.18126018  0.76067235  0.10283826    -0.75400
Al75       Al  0.13405995  0.79763612  0.10785444     1.90100
O76         O  0.14994438  0.75562551  0.04702573    -0.74500
O77         O  0.20821138  0.79793810  0.06533323    -0.74300
O78         O  0.17692427  0.78844307  0.01077962    -0.80000
O79         O  0.19399537  0.83405326  0.04109879    -0.78200
O80         O  0.15652837  0.80381426  0.07326092    -1.14300
O81         O  0.16546182  0.85294800  0.09760456    -0.73500
C82         C  0.15171830  0.85060047  0.12539415     0.97200
C83         C  0.13223977  0.74885087  0.06787058     0.93600
Al84       Al  0.17743893  0.77818714  0.05813208     1.55600
O85         O  0.10541761  0.80808394  0.08088563    -0.78200
C86         C  0.21213305  0.81774484  0.04576777     0.97700
C87         C  0.17163769  0.76490659  0.13301392     0.92600
O88         O  0.15973952  0.78594710  0.13894006    -0.83500
O89         O  0.33640591  0.71606628  0.09676278    -0.82900
C90         C  0.34085114  0.70502061  0.24263623     0.96400
O91         O  0.32346865  0.71659611  0.22579447    -0.72100
O92         O  0.34919296  0.74931366  0.18581685    -0.75600
Al93       Al  0.32179412  0.72553992  0.17764477     1.49000
C94         C  0.36635517  0.75576787  0.16365777     0.91700
O95         O  0.39410785  0.69639017  0.15059913    -0.81900
O96         O  0.33439062  0.65000177  0.14296519    -0.75400
Al97       Al  0.36378788  0.70569642  0.12597419     1.90100
O98         O  0.37905850  0.66178815  0.17711809    -0.74500
O99         O  0.30809588  0.67023830  0.19956620    -0.74300
O100        O  0.35376305  0.68654325  0.22870998    -0.80000
O101        O  0.29180430  0.70428189  0.17231881    -0.78200
O102        O  0.34306154  0.70019740  0.16261612    -1.14300
O103        O  0.31608716  0.74195933  0.13300513    -0.73500
C104        C  0.32518648  0.73744268  0.10273939     0.97200
C105        C  0.39781660  0.67521426  0.16661698     0.93600
Al106      Al  0.34365974  0.66952781  0.18511625     1.55600
O107        O  0.37184375  0.74093176  0.13805910    -0.78200
C108        C  0.28902769  0.68494385  0.19307548     0.97700
C109        C  0.34577730  0.65216197  0.11319697     0.92600
O110        O  0.35974439  0.67168184  0.10645101    -0.83500
O111        O  0.15513123  0.71157892  0.39090185    -0.82900
C112        C  0.16250330  0.69433811  0.24481350     0.96400
O113        O  0.17768553  0.70748329  0.26334293    -0.72100
O114        O  0.15165925  0.74250847  0.29856799    -0.75600
Al115      Al  0.17702467  0.71743773  0.31136743     1.49000
C116        C  0.13278122  0.74985939  0.31722243     0.91700
O117        O  0.10295355  0.69197383  0.32806634    -0.81900
O118        O  0.15996502  0.64342049  0.34891472    -0.75400
Al119      Al  0.13065908  0.70085158  0.35740243     1.90100
O120        O  0.11868395  0.65548989  0.30736700    -0.74500
O121        O  0.19134810  0.66059144  0.29413105    -0.74300
O122        O  0.14865126  0.67661308  0.25828776    -0.80000
O123        O  0.20531992  0.69504788  0.32185458    -0.78200
O124        O  0.15418793  0.69334999  0.32462144    -1.14300
O125        O  0.18025609  0.73416034  0.35608734    -0.73500
C126        C  0.16919368  0.73113032  0.38546895     0.97200
C127        C  0.09972213  0.67026471  0.31337158     0.93600
Al128      Al  0.15476093  0.66161235  0.30427015     1.55600
O129        O  0.12460846  0.73597423  0.34240125    -0.78200
C130        C  0.20947865  0.67612716  0.30093828     0.97700
C131        C  0.14502545  0.64629287  0.37548412     0.92600
O132        O  0.13168835  0.66692215  0.37910447    -0.83500
O133        O  0.91756106  0.38470714  0.00784832    -0.82900
C134        C  0.93597468  0.41285655  0.37041109     0.96400
O135        O  0.91879143  0.40033608  0.38706596    -0.72100
O136        O  0.90021786  0.37155951  0.44068973    -0.75600
Al137      Al  0.90899024  0.40806214  0.43486578     1.49000
C138        C  0.91413446  0.35144541  0.44517565     0.91700
O139        O  0.98240647  0.37227649  0.46341766    -0.81900
O140        O  0.98568917  0.42828929  0.47509119    -0.75400
Al141      Al  0.94942993  0.38101836  0.48186723     1.90100
O142        O  0.98767248  0.39749537  0.41711394    -0.74500
O143        O  0.94763672  0.45665998  0.44442352    -0.74300
O144        O  0.95264739  0.42613458  0.38627255    -0.80000
O145        O  0.91050846  0.44512994  0.42333051    -0.78200
O146        O  0.94159895  0.40500624  0.44978478    -1.14300
O147        O  0.89582125  0.41566057  0.48197440    -0.73500
C148        C  0.89949684  0.40033857  0.50808565     0.97200
C149        C  0.99518950  0.37896889  0.43661035     0.93600
Al150      Al  0.96610529  0.42568325  0.43235636     1.55600
O151        O  0.93713707  0.35380240  0.45402273    -0.78200
C152        C  0.92782651  0.46224182  0.42651158     0.97700
C153        C  0.98227123  0.41874087  0.00562458     0.92600
O154        O  0.96256134  0.40582338  0.01316780    -0.83500
O155        O  0.92069916  0.61816204  0.23128157    -0.82900
C156        C  0.94372282  0.59524037  0.37160265     0.96400
O157        O  0.92562242  0.60747281  0.35610393    -0.72100
O158        O  0.90440978  0.63496761  0.30205009    -0.75600
Al159      Al  0.91387164  0.59865891  0.30855872     1.49000
C160        C  0.91700743  0.65505839  0.29335093     0.91700
O161        O  0.98512433  0.63382716  0.27135355    -0.81900
O162        O  0.98987657  0.57716297  0.26473380    -0.75400
Al163      Al  0.95213273  0.62360200  0.25531326     1.90100
O164        O  0.99182064  0.61073677  0.31939649    -0.74500
O165        O  0.95369826  0.54925936  0.30008376    -0.74300
O166        O  0.95981257  0.58207926  0.35438617    -0.80000
O167        O  0.91638873  0.56183548  0.32106708    -0.78200
O168        O  0.94569765  0.60111622  0.29033047    -1.14300
O169        O  0.89842670  0.58994932  0.26274451    -0.73500
C170        C  0.90186025  0.60293865  0.23425989     0.97200
C171        C  0.99836933  0.62851198  0.29820200     0.93600
Al172      Al  0.97126302  0.58145906  0.30775779     1.55600
O173        O  0.93910520  0.65250522  0.28041145    -0.78200
C174        C  0.93378355  0.54443461  0.31836090     0.97700
C175        C  0.98663592  0.58553195  0.23378013     0.92600
O176        O  0.96657042  0.59790000  0.22557957    -0.83500
O177        O  0.57774728  0.62718817  0.24720206    -0.82900
C178        C  0.54621327  0.59290621  0.11987054     0.96400
O179        O  0.56781212  0.60302379  0.12907657    -0.72100
O180        O  0.59847568  0.63103955  0.17499074    -0.75600
Al181      Al  0.58357790  0.59764333  0.17575251     1.49000
C182        C  0.58860141  0.65317730  0.17541635     0.91700
O183        O  0.51802617  0.64406308  0.19216853    -0.81900
O184        O  0.52096742  0.57877426  0.24010019    -0.75400
Al185      Al  0.54801753  0.63407545  0.21779873     1.90100
O186        O  0.50142939  0.60547587  0.18534977    -0.74500
O187        O  0.54792834  0.54934339  0.19515160    -0.74300
O188        O  0.53179138  0.58080362  0.14147505    -0.80000
O189        O  0.58158840  0.56169769  0.16675099    -0.78200
O190        O  0.55301388  0.60397710  0.19526372    -1.14300
O191        O  0.59853080  0.59295092  0.22306627    -0.73500
C192        C  0.59498317  0.60926559  0.24874389     0.97200
C193        C  0.49907878  0.62987187  0.18476915     0.93600
Al194      Al  0.52795531  0.58062439  0.19099594     1.55600
O195        O  0.56584766  0.65590153  0.18524982    -0.78200
C196        C  0.56599408  0.54420803  0.17412337     0.97700
C197        C  0.51710980  0.59824327  0.26007439     0.92600
O198        O  0.52743293  0.61989473  0.25388418    -0.83500
O199        O  0.58264211  0.37794956  0.50032530    -0.82900
C200        C  0.55155879  0.41965129  0.12670001     0.96400
O201        O  0.57144698  0.40601563  0.11796728    -0.72100
O202        O  0.59979989  0.37271092  0.07304115    -0.75600
Al203      Al  0.58700874  0.40816849  0.07101709     1.49000
C204        C  0.58880321  0.35117979  0.06952957     0.91700
O205        O  0.51935355  0.36472215  0.04951687    -0.81900
O206        O  0.52146745  0.42729804  0.00756365    -0.75400
Al207      Al  0.55101019  0.37329288  0.02717106     1.90100
O208        O  0.50471051  0.40304510  0.06571965    -0.74500
O209        O  0.55231392  0.45663192  0.04648423    -0.74300
O210        O  0.53669740  0.42947877  0.10386800    -0.80000
O211        O  0.58537252  0.44482195  0.07660706    -0.78200
O212        O  0.55613063  0.40286454  0.05085581    -1.14300
O213        O  0.60312269  0.41133546  0.02503821    -0.73500
C214        C  0.60040914  0.39504346  0.49989152     0.97200
C215        C  0.50157701  0.37888321  0.06182201     0.93600
Al216      Al  0.53124479  0.42692036  0.05539633     1.55600
O217        O  0.56573996  0.35112040  0.06103721    -0.78200
C218        C  0.56963171  0.46229904  0.06824449     0.97700
C219        C  0.52029918  0.40854923  0.48603603     0.92600
O220        O  0.53364730  0.38828558  0.48947409    -0.83500
O221        O  0.86837347  0.21491317  0.36503807    -0.82900
C222        C  0.82633336  0.21287844  0.99413981     0.96400
O223        O  0.82428354  0.22395069  0.46546982    -0.72100
O224        O  0.84983401  0.24476890  0.41592252    -0.75600
Al225      Al  0.82723329  0.21510925  0.41965986     1.49000
C226        C  0.87316369  0.24805141  0.42429713     0.91700
O227        O  0.90502475  0.17988122  0.43290196    -0.81900
O228        O  0.86154474  0.14055864  0.42140972    -0.75400
Al229      Al  0.88187578  0.19667607  0.40310787     1.90100
O230        O  0.88300452  0.17080642  0.47975026    -0.74500
O231        O  0.81631964  0.15686519  0.44732678    -0.74300
O232        O  0.83676188  0.19015579  0.49701744    -0.80000
O233        O  0.79875257  0.19197756  0.42599981    -0.78200
O234        O  0.85270552  0.19255719  0.42769175    -1.14300
O235        O  0.82742059  0.20877658  0.37039993    -0.73500
C236        C  0.84618079  0.21843273  0.35383382     0.97200
C237        C  0.90425896  0.17329201  0.46459136     0.93600
Al238      Al  0.84991301  0.16663269  0.45867894     1.55600
O239        O  0.88846270  0.22866572  0.42682310    -0.78200
C240        C  0.79729565  0.17183467  0.44512845     0.97700
C241        C  0.86861734  0.14412711  0.38884955     0.92600
O242        O  0.87614759  0.16614538  0.37815244    -0.83500
O243        O  0.64779124  0.20976717  0.13846719    -0.82900
C244        C  0.66915343  0.20020202  0.49709995     0.96400
O245        O  0.68277577  0.21237500  0.01997175    -0.72100
O246        O  0.66258225  0.24556355  0.06458818    -0.75600
Al247      Al  0.68337817  0.21481980  0.06930152     1.49000
C248        C  0.63941271  0.25050224  0.07143269     0.91700
O249        O  0.60630351  0.19078231  0.06326377    -0.81900
O250        O  0.66163923  0.14197285  0.09244110    -0.75400
Al251      Al  0.62988334  0.19858181  0.09895941     1.90100
O252        O  0.62209111  0.15362107  0.04866445    -0.74500
O253        O  0.69344887  0.15958359  0.03874944    -0.74300
O254        O  0.65482300  0.18123817  0.00532628    -0.80000
O255        O  0.71104419  0.18907702  0.07152393    -0.78200
O256        O  0.65749064  0.19200143  0.07298820    -1.14300
O257        O  0.68575470  0.22183723  0.11894957    -0.73500
C258        C  0.66715305  0.22406453  0.14066452     0.97200
C259        C  0.60286202  0.16827722  0.05227169     0.93600
Al260      Al  0.65808756  0.16181671  0.04878208     1.55600
O261        O  0.62488826  0.23311526  0.08328953    -0.78200
C262        C  0.71305745  0.17185381  0.04749867     0.97700
C263        C  0.64597078  0.14478677  0.11843962     0.92600
O264        O  0.63052281  0.16417537  0.12001181    -0.83500
O265        O  0.07743062  0.09496286  0.02786462    -0.82900
C266        C  0.04165715  0.10938407  0.38961535     0.96400
O267        O  0.06468523  0.10235156  0.39548871    -0.72100
O268        O  0.08487417  0.13554198  0.44123877    -0.75600
Al269      Al  0.08171966  0.09889695  0.44145737     1.49000
C270        C  0.08432226  0.15096235  0.46727049     0.91700
O271        O  0.02444599  0.14020576  0.49456000    -0.81900
O272        O  0.02046386  0.06224841  0.48636357    -0.75400
Al273      Al  0.05125742  0.11638061  0.50844235     1.90100
O274        O  0.00016115  0.10984111  0.47230221    -0.74500
O275        O  0.04092218  0.05999253  0.42168814    -0.74300
O276        O  0.02564154  0.11071098  0.41433588    -0.80000
O277        O  0.08143397  0.06112031  0.43652919    -0.78200
O278        O  0.05273177  0.10017954  0.46709173    -1.14300
O279        O  0.10450277  0.09652859  0.48286251    -0.73500
C280        C  0.10017964  0.09495914  0.51607404     0.97200
C281        C  0.00256913  0.13225979  0.48562061     0.93600
Al282      Al  0.02428301  0.08666113  0.44979975     1.55600
O283        O  0.07482349  0.14393348  0.49659829    -0.78200
C284        C  0.06337478  0.05046197  0.41920860     0.97700
C285        C  0.01749671  0.06995583  0.01842770     0.92600
O286        O  0.02726010  0.09141307  0.02874049    -0.83500
O287        O  0.08954968  0.88720114  0.23649071    -0.82900
C288        C  0.05768857  0.91483844  0.36939594     0.96400
O289        O  0.07670236  0.90216819  0.35668647    -0.72100
O290        O  0.10237253  0.87423875  0.30769110    -0.75600
Al291      Al  0.09268330  0.91046423  0.31142270     1.49000
C292        C  0.08992233  0.85384036  0.30091542     0.91700
O293        O  0.02342750  0.87552857  0.27270212    -0.81900
O294        O  0.02073089  0.93246881  0.25792881    -0.75400
Al295      Al  0.05686977  0.88361764  0.25789940     1.90100
O296        O  0.01405296  0.90329576  0.31542080    -0.74500
O297        O  0.05691608  0.96041456  0.29257709    -0.74300
O298        O  0.04613223  0.93178144  0.35127749    -0.80000
O299        O  0.09045449  0.94789020  0.32239781    -0.78200
O300        O  0.06212443  0.90819280  0.29023775    -1.14300
O301        O  0.11070981  0.91726940  0.26660160    -0.73500
C302        C  0.10855022  0.90223112  0.23964794     0.97200
C303        C  0.00867558  0.88376735  0.29665188     0.93600
Al304      Al  0.03688269  0.93027120  0.30292129     1.55600
O305        O  0.06795996  0.85582021  0.28744471    -0.78200
C306        C  0.07453206  0.96582633  0.31430721     0.97700
C307        C  0.02445245  0.92121358  0.22873302     0.92600
O308        O  0.04431051  0.90743913  0.22382344    -0.83500
O309        O  0.15289405  0.29002491  0.36457192    -0.82900
C310        C  0.15792636  0.30746579  0.00900150     0.96400
O311        O  0.17520759  0.29520435  0.49074544    -0.72100
O312        O  0.14874481  0.25938164  0.45857393    -0.75600
Al313      Al  0.17399467  0.28345956  0.44325678     1.49000
C314        C  0.13052726  0.25100162  0.44003341     0.91700
O315        O  0.09965163  0.30777013  0.42708467    -0.81900
O316        O  0.15623341  0.35634861  0.40223015    -0.75400
Al317      Al  0.12763792  0.29901159  0.39755257     1.90100
O318        O  0.11456024  0.34553926  0.44365496    -0.74500
O319        O  0.18806565  0.33992194  0.45849524    -0.74300
O320        O  0.14438347  0.32486346  0.49449973    -0.80000
O321        O  0.20220631  0.30523964  0.43091290    -0.78200
O322        O  0.15089874  0.30729125  0.42949859    -1.14300
O323        O  0.17664680  0.26539484  0.39842363    -0.73500
C324        C  0.16650515  0.26999966  0.36871480     0.97200
C325        C  0.09566223  0.33090902  0.43681870     0.93600
Al326      Al  0.15101629  0.33930106  0.44817753     1.55600
O327        O  0.12285110  0.26347560  0.41316245    -0.78200
C328        C  0.20647692  0.32417949  0.45161889     0.97700
C329        C  0.14069828  0.35267806  0.37654613     0.92600
O330        O  0.12723920  0.33226726  0.37512766    -0.83500
O331        O  0.34580212  0.28933009  0.14692006    -0.82900
C332        C  0.34056991  0.30193261  0.50139034     0.96400
O333        O  0.32359733  0.29020173  0.01947025    -0.72100
O334        O  0.35099132  0.25722817  0.05687705    -0.75600
Al335      Al  0.32412479  0.28106881  0.06805795     1.49000
C336        C  0.37055185  0.25201378  0.07520145     0.91700
O337        O  0.39692468  0.31256823  0.08446563    -0.81900
O338        O  0.33531012  0.35596899  0.10197462    -0.75400
Al339      Al  0.36931193  0.30164129  0.11315999     1.90100
O340        O  0.37922745  0.34769536  0.06366041    -0.74500
O341        O  0.30776334  0.33594429  0.04666687    -0.74300
O342        O  0.35283613  0.32100307  0.01380612    -0.80000
O343        O  0.29386515  0.30202718  0.07631417    -0.78200
O344        O  0.34561173  0.30673021  0.08029822    -1.14300
O345        O  0.32167648  0.26481586  0.11406221    -0.73500
C346        C  0.33376363  0.26844977  0.14259790     0.97200
C347        C  0.39918651  0.33510326  0.07189724     0.93600
Al348      Al  0.34377419  0.33770041  0.05835809     1.55600
O349        O  0.37829321  0.26724323  0.09896286    -0.78200
C350        C  0.28952337  0.32103481  0.05539582     0.97700
C351        C  0.34858526  0.35368947  0.13013514     0.92600
O352        O  0.36445112  0.33507989  0.13406238    -0.83500
O353        O  0.03151644  0.59896734  0.47782976    -0.82900
C354        C  0.05311431  0.59194888  0.12413008     0.96400
O355        O  0.03502433  0.58202212  0.10699027    -0.72100
O356        O  0.00565044  0.61359005  0.07188424    -0.75600
Al357      Al  0.02389528  0.58234740  0.06018359     1.49000
C358        C  0.00054995  0.63213670  0.05109070     0.91700
O359        O  0.06082829  0.64970977  0.03677565    -0.81900
O360        O  0.09789499  0.58418974  0.01583099    -0.75400
Al361      Al  0.04693752  0.62288082  0.00917607     1.90100
O362        O  0.09448692  0.62856780  0.05674931    -0.74500
O363        O  0.07726684  0.55652497  0.07293660    -0.74300
O364        O  0.07222350  0.60206898  0.10875449    -0.80000
O365        O  0.03877193  0.54838460  0.05293775    -0.78200
O366        O  0.05121812  0.59919069  0.04337390    -1.14300
O367        O  0.00583996  0.58005353  0.01597623    -0.73500
C368        C  0.01045929  0.58802741  0.48506939     0.97200
C369        C  0.08256836  0.64975230  0.05103059     0.93600
Al370      Al  0.08273765  0.59321350  0.06147658     1.55600
O371        O  0.01410733  0.63561288  0.02385381    -0.78200
C372        C  0.05815656  0.54131463  0.07095993     0.97700
C373        C  0.09677485  0.59931090  0.98910237     0.92600
O374        O  0.07885462  0.61600304  0.48649204    -0.83500
O375        O  0.01394102  0.38966689  0.25998132    -0.82900
C376        C  0.04260062  0.40607733  0.12285865     0.96400
O377        O  0.02266594  0.40245234  0.14111355    -0.72100
O378        O  0.99361016  0.38543845  0.19146366    -0.75600
Al379      Al  0.01632236  0.41389159  0.18712002     1.49000
C380        C  0.99621920  0.36140178  0.19695221     0.91700
O381        O  0.06728444  0.35084724  0.21982788    -0.81900
O382        O  0.09374467  0.40349172  0.23072947    -0.75400
Al383      Al  0.04117423  0.37319162  0.23643325     1.90100
O384        O  0.08489230  0.37065787  0.17458245    -0.74500
O385        O  0.07227178  0.44359937  0.19002297    -0.74300
O386        O  0.06438944  0.40911788  0.13685247    -0.80000
O387        O  0.03175350  0.44613298  0.17624659    -0.78200
O388        O  0.04467605  0.39789176  0.20309532    -1.14300
O389        O  0.00587713  0.42658123  0.23266437    -0.73500
C390        C  0.00083821  0.41028706  0.25694993     0.97200
C391        C  0.08206749  0.35064835  0.19353036     0.93600
Al392      Al  0.07596434  0.40595830  0.18510004     1.55600
O393        O  0.01706049  0.35248212  0.20940224    -0.78200
C394        C  0.05379667  0.45604451  0.17579536     0.97700
C395        C  0.08691542  0.39712838  0.26200798     0.92600
O396        O  0.06414997  0.38994835  0.26819611    -0.83500
O397        O  0.97235497  0.88998444  0.48540036    -0.82900
C398        C  0.95157451  0.91355465  0.12193992     0.96400
O399        O  0.96712063  0.92509685  0.10130296    -0.72100
O400        O  0.99879519  0.90141699  0.05822446    -0.75600
Al401      Al  0.97243308  0.92651405  0.05208811     1.49000
C402        C  0.00123228  0.87709102  0.05562003     0.91700
O403        O  0.93532289  0.85162982  0.05228234    -0.81900
O404        O  0.90136887  0.91512242  0.01831823    -0.75400
Al405      Al  0.95238529  0.87445762  0.02088163     1.90100
O406        O  0.90197846  0.87491336  0.06429802    -0.74500
O407        O  0.91819126  0.94557591  0.07610819    -0.74300
O408        O  0.93064011  0.90310052  0.11136227    -0.80000
O409        O  0.95207538  0.95785162  0.04847624    -0.78200
O410        O  0.94721405  0.90356096  0.04559916    -1.14300
O411        O  0.98172954  0.92969781  0.00300195    -0.73500
C412        C  0.98407743  0.91107868  0.48073818     0.97200
C413        C  0.91258931  0.85300584  0.06272831     0.93600
Al414      Al  0.91610562  0.90925604  0.06504901     1.55600
O415        O  0.98269724  0.86359215  0.04484758    -0.78200
C416        C  0.93475511  0.96277124  0.07099051     0.97700
C417        C  0.90496465  0.89942187  0.99213886     0.92600
O418        O  0.92240981  0.88170743  0.49256275    -0.83500
O419        O  0.96855054  0.11796943  0.26626209    -0.82900
C420        C  0.96102529  0.08789742  0.13351732     0.96400
O421        O  0.97618935  0.09682846  0.15610458    -0.72100
O422        O  0.99863660  0.11359256  0.21198248    -0.75600
Al423      Al  0.97521160  0.08629548  0.20271620     1.49000
C424        C  0.99651840  0.13773563  0.20742040     0.91700
O425        O  0.92451209  0.15276723  0.20475122    -0.81900
O426        O  0.89650554  0.09483980  0.23020084    -0.75400
Al427      Al  0.94649708  0.13269861  0.23267594     1.90100
O428        O  0.90594048  0.12561108  0.16873169    -0.74500
O429        O  0.92209983  0.05525232  0.19596671    -0.74300
O430        O  0.93669828  0.08650659  0.13995466    -0.80000
O431        O  0.96295923  0.05270605  0.18826601    -0.78200
O432        O  0.94578573  0.10353488  0.20723972    -1.14300
O433        O  0.97606196  0.07666397  0.25124239    -0.73500
C434        C  0.97816616  0.09563514  0.27280466     0.97200
C435        C  0.90937267  0.14853465  0.17985741     0.93600
Al436      Al  0.91751571  0.09195833  0.18564351     1.55600
O437        O  0.97448227  0.14808940  0.20620029    -0.78200
C438        C  0.94121964  0.04288248  0.18369186     0.97700
C439        C  0.90110434  0.10670255  0.25949216     0.92600
O440        O  0.91996927  0.12175189  0.26220314    -0.83500
O441        O  0.86652556  0.66810829  0.12848666    -0.82900
C442        C  0.83689344  0.71481397  0.50392112     0.96400
O443        O  0.85317818  0.69684339  0.01087932    -0.72100
O444        O  0.88509001  0.66904686  0.05264745    -0.75600
Al445      Al  0.84881358  0.67202678  0.04965501     1.49000
C446        C  0.90234077  0.68207914  0.06724053     0.91700
O447        O  0.86988024  0.73980671  0.10652763    -0.81900
O448        O  0.80946795  0.72772279  0.12195316    -0.75400
Al449      Al  0.86618123  0.70348021  0.11502168     1.90100
O450        O  0.83807211  0.75071731  0.07122426    -0.74500
O451        O  0.79118495  0.69272065  0.07154840    -0.74300
O452        O  0.81892943  0.72004657  0.02461756    -0.80000
O453        O  0.81365251  0.66752720  0.03634617    -0.78200
O454        O  0.84390797  0.69854485  0.07975334    -1.14300
O455        O  0.84541087  0.64581366  0.08764563    -0.73500
C456        C  0.85635468  0.64719307  0.11796333     0.97200
C457        C  0.85881548  0.75610538  0.08669662     0.93600
Al458      Al  0.81679379  0.72042687  0.07337397     1.55600
O459        O  0.89659033  0.70004953  0.08824603    -0.78200
C460        C  0.79213294  0.67651087  0.04586460     0.97700
C461        C  0.82498045  0.72654764  0.14728846     0.92600
O462        O  0.84019914  0.70763052  0.14862431    -0.83500
O463        O  0.61920683  0.66302164  0.37935216    -0.82900
C464        C  0.65633505  0.69869926  0.00368705     0.96400
O465        O  0.64411085  0.67753613  0.49683296    -0.72100
O466        O  0.61237326  0.64773282  0.45484453    -0.75600
Al467      Al  0.64698685  0.65792416  0.45210819     1.49000
C468        C  0.59196263  0.66021358  0.45156111     0.91700
O469        O  0.61009352  0.72725224  0.42691161    -0.81900
O470        O  0.67424961  0.71405068  0.38067683    -0.75400
Al471      Al  0.61641755  0.69510560  0.40491561     1.90100
O472        O  0.64925035  0.74162220  0.43177560    -0.74500
O473        O  0.69924227  0.68670421  0.43136586    -0.74300
O474        O  0.66903694  0.71107424  0.48017550    -0.80000
O475        O  0.68245325  0.65560582  0.46160772    -0.78200
O476        O  0.64489474  0.68807327  0.42891329    -1.14300
O477        O  0.64928947  0.63882478  0.40638674    -0.73500
C478        C  0.63403494  0.64316036  0.38000611     0.97200
C479        C  0.62532725  0.74567235  0.43206305     0.93600
Al480      Al  0.67067037  0.71103879  0.43073285     1.55600
O481        O  0.59242707  0.68232458  0.43796579    -0.78200
C482        C  0.70161337  0.66903828  0.45443945     0.97700
C483        C  0.65581604  0.71840508  0.35972880     0.92600
O484        O  0.63341828  0.71131015  0.36746874    -0.83500
O485        O  0.42926090  0.89070378  0.26512652    -0.82900
C486        C  0.46611257  0.91256921  0.12900490     0.96400
O487        O  0.44266696  0.91550158  0.13766113    -0.72100
O488        O  0.41633627  0.87556705  0.16590326    -0.75600
Al489      Al  0.42504713  0.90982896  0.18269198     1.49000
C490        C  0.41421897  0.85533137  0.18464566     0.91700
O491        O  0.47513441  0.85102823  0.20860658    -0.81900
O492        O  0.48872607  0.92285369  0.24657211    -0.75400
Al493      Al  0.45172503  0.87226635  0.23582332     1.90100
O494        O  0.50355796  0.88245947  0.20404696    -0.74500
O495        O  0.47102538  0.94815792  0.18580565    -0.74300
O496        O  0.48230265  0.90390518  0.15062735    -0.80000
O497        O  0.42971133  0.94601613  0.19394146    -0.78200
O498        O  0.45325944  0.89881713  0.20551755    -1.14300
O499        O  0.40272970  0.90695978  0.22520634    -0.73500
C500        C  0.40820237  0.90154564  0.25739143     0.97200
C501        C  0.49801095  0.85849869  0.20377769     0.93600
Al502      Al  0.48363384  0.91340502  0.19771551     1.55600
O503        O  0.42435852  0.85413386  0.21463199    -0.78200
C504        C  0.44894007  0.95832652  0.18211038     0.97700
C505        C  0.49160301  0.90424435  0.26865049     0.92600
O506        O  0.47878237  0.88364693  0.26515279    -0.83500
O507        O  0.41717754  0.12121431  0.49730398    -0.82900
C508        C  0.45212814  0.08844375  0.12635927     0.96400
O509        O  0.43269334  0.10100022  0.11496910    -0.72100
O510        O  0.40679395  0.13068506  0.06803648    -0.75600
Al511      Al  0.41721753  0.09440225  0.06959119     1.49000
C512        C  0.41939063  0.15136389  0.06294197     0.91700
O513        O  0.48567870  0.13256576  0.02782504    -0.81900
O514        O  0.48755328  0.07600146  0.00968901    -0.75400
Al515      Al  0.45114116  0.12420102  0.01641956     1.90100
O516        O  0.49676761  0.10403772  0.06820588    -0.74500
O517        O  0.45449110  0.04567285  0.04951076    -0.74300
O518        O  0.46658843  0.07548607  0.10598502    -0.80000
O519        O  0.42041172  0.05721615  0.07912504    -0.78200
O520        O  0.44749168  0.09831355  0.04744744    -1.14300
O521        O  0.39920813  0.08796277  0.02517428    -0.73500
C522        C  0.39953851  0.10434232  0.99963619     0.97200
C523        C  0.50176921  0.12367951  0.04952566     0.93600
Al524      Al  0.47376204  0.07692950  0.05717582     1.55600
O525        O  0.44140629  0.15000694  0.04938278    -0.78200
C526        C  0.43735244  0.04008066  0.07223096     0.97700
C527        C  0.48297544  0.08926921  0.48207457     0.92600
O528        O  0.46230145  0.10200118  0.47971229    -0.83500
O529        O  0.37147818  0.16093016  0.37909995    -0.82900
C530        C  0.34067402  0.19215947  0.24800602     0.96400
O531        O  0.35275060  0.17263747  0.26075276    -0.72100
O532        O  0.38093942  0.14722769  0.30960639    -0.75600
Al533      Al  0.34553628  0.15813645  0.30713474     1.49000
C534        C  0.40106661  0.16051369  0.31317354     0.91700
O535        O  0.38314068  0.22893061  0.34352613    -0.81900
O536        O  0.32794518  0.23239886  0.36129388    -0.75400
Al537      Al  0.37463250  0.19446778  0.35754703     1.90100
O538        O  0.35582937  0.23821910  0.30133021    -0.74500
O539        O  0.29766836  0.19709722  0.32528932    -0.74300
O540        O  0.32640002  0.20638863  0.26700500    -0.80000
O541        O  0.30920240  0.16136738  0.29791470    -0.78200
O542        O  0.34936127  0.18962176  0.32695159    -1.14300
O543        O  0.33884737  0.14150680  0.35291663    -0.73500
C544        C  0.35470727  0.14316114  0.37856425     0.97200
C545        C  0.37534433  0.24373601  0.31928550     0.93600
Al546      Al  0.32857827  0.21605474  0.31509759     1.55600
O547        O  0.40003141  0.18330732  0.32522880    -0.78200
C548        C  0.29204397  0.17822697  0.30495842     0.97700
C549        C  0.33937302  0.22747516  0.39012652     0.92600
O550        O  0.35240185  0.20683984  0.39305825    -0.83500
O551        O  0.13318062  0.16659037  0.12141976    -0.82900
C552        C  0.16123840  0.20069094  0.25361650     0.96400
O553        O  0.14723956  0.18256978  0.24168085    -0.72100
O554        O  0.11714281  0.15934738  0.19455885    -0.75600
Al555      Al  0.15378429  0.16488552  0.19766635     1.49000
C556        C  0.09886563  0.17442141  0.18597717     0.91700
O557        O  0.12574581  0.23684038  0.15084418    -0.81900
O558        O  0.18125074  0.23477317  0.13912079    -0.75400
Al559      Al  0.13200592  0.20110407  0.13980995     1.90100
O560        O  0.15136422  0.24557886  0.19523509    -0.74500
O561        O  0.20601604  0.19732352  0.17907424    -0.74300
O562        O  0.17689366  0.21266561  0.23425002    -0.80000
O563        O  0.19024395  0.16401409  0.20835017    -0.78200
O564        O  0.15436939  0.19532255  0.17424132    -1.14300
O565        O  0.15974255  0.14408858  0.15511387    -0.73500
C566        C  0.14663791  0.14640022  0.12686959     0.97200
C567        C  0.13277985  0.25168848  0.17548702     0.93600
Al568      Al  0.17717679  0.22010018  0.18566601     1.55600
O569        O  0.10322695  0.19449222  0.16805126    -0.78200
C570        C  0.20909652  0.17858798  0.20077101     0.97700
C571        C  0.16984506  0.23012564  0.11041321     0.92600
O572        O  0.15802699  0.20902278  0.10715585    -0.83500
O573        O  0.54072379  0.91134475  0.01683879    -0.82900
C574        C  0.56541503  0.90684679  0.37438792     0.96400
O575        O  0.55197922  0.92452453  0.38846172    -0.72100
O576        O  0.51568405  0.89966459  0.42284706    -0.75600
Al577      Al  0.53856491  0.92715621  0.43466820     1.49000
C578        C  0.50774869  0.88222308  0.44375184     0.91700
O579        O  0.56525354  0.85441654  0.46340994    -0.81900
O580        O  0.60817197  0.91669670  0.48407705    -0.75400
Al581      Al  0.55352702  0.88423439  0.48824724     1.90100
O582        O  0.60263928  0.87019396  0.44819715    -0.74500
O583        O  0.59444847  0.94240957  0.42182775    -0.74300
O584        O  0.58289720  0.89493299  0.39158908    -0.80000
O585        O  0.55841273  0.95740153  0.44375700    -0.78200
O586        O  0.56210531  0.90593076  0.45381943    -1.14300
O587        O  0.51964787  0.93380914  0.47671429    -0.73500
C588        C  0.52333683  0.92734837  0.00842144     0.97200
C589        C  0.58814707  0.85092197  0.45370305     0.93600
Al590      Al  0.59456639  0.90623787  0.43788219     1.55600
O591        O  0.52023109  0.87616897  0.47105512    -0.78200
C592        C  0.57846643  0.96097912  0.42546949     0.97700
C593        C  0.60330590  0.90388517  0.51238024     0.92600
O594        O  0.58476753  0.88806698  0.01349140    -0.83500
O595        O  0.54311420  0.09551478  0.22920029    -0.82900
C596        C  0.55773360  0.09616029  0.37470781     0.96400
O597        O  0.54726006  0.07800333  0.35773264    -0.72100
O598        O  0.51262008  0.10318126  0.32162470    -0.75600
Al599      Al  0.53704700  0.07717084  0.30979103     1.49000
C600        C  0.50394777  0.12016929  0.30063081     0.91700
O601        O  0.56033722  0.15244800  0.28736456    -0.81900
O602        O  0.60884629  0.09335921  0.27135587    -0.75400
Al603      Al  0.55242003  0.12241002  0.26043831     1.90100
O604        O  0.59695857  0.13820343  0.30826450    -0.74500
O605        O  0.59204447  0.06443196  0.32893953    -0.74300
O606        O  0.57490369  0.11032388  0.36047796    -0.80000
O607        O  0.55944052  0.04843298  0.30025029    -0.78200
O608        O  0.56012646  0.10033056  0.29491914    -1.14300
O609        O  0.52003730  0.07216702  0.26548871    -0.73500
C610        C  0.52354129  0.08192186  0.23526480     0.97200
C611        C  0.58194385  0.15683287  0.30062252     0.93600
Al612      Al  0.59092347  0.10138184  0.31547354     1.55600
O613        O  0.51747798  0.12792617  0.27483778    -0.78200
C614        C  0.57796655  0.04502424  0.32137692     0.97700
C615        C  0.60537350  0.10624819  0.24281553     0.92600
O616        O  0.58571402  0.12068715  0.23893303    -0.83500
O617        O  0.84384430  0.32953232  0.10763677    -0.82900
C618        C  0.83248148  0.29037088  0.24526641     0.96400
O619        O  0.83564696  0.31444902  0.23880835    -0.72100
O620        O  0.87714347  0.32625985  0.20101988    -0.75600
Al621      Al  0.84100765  0.33245712  0.19424136     1.49000
C622        C  0.89361976  0.32332187  0.17672882     0.91700
O623        O  0.87112481  0.26777234  0.14801696    -0.81900
O624        O  0.79620404  0.28139843  0.13579742    -0.75400
Al625      Al  0.85648763  0.29898128  0.12953893     1.90100
O626        O  0.83480098  0.24953130  0.16266059    -0.74500
O627        O  0.78964616  0.30291034  0.20049555    -0.74300
O628        O  0.82942706  0.27389050  0.22132804    -0.80000
O629        O  0.80510231  0.34235852  0.19334076    -0.78200
O630        O  0.83694438  0.30389784  0.16750695    -1.14300
O631        O  0.84767275  0.35580499  0.15349105    -0.73500
C632        C  0.84690739  0.35220426  0.12000605     0.97200
C633        C  0.85862060  0.24749914  0.15570581     0.93600
Al634      Al  0.81423763  0.27931554  0.17897129     1.55600
O635        O  0.88642016  0.31662376  0.14622032    -0.78200
C636        C  0.78788044  0.32732529  0.20547200     0.97700
C637        C  0.80807936  0.27481870  0.10807035     0.92600
O638        O  0.83165470  0.27979076  0.10404003    -0.83500
O639        O  0.63973937  0.33419128  0.38705548    -0.82900
C640        C  0.66230835  0.29917982  0.24957241     0.96400
O641        O  0.65310347  0.32175310  0.25584056    -0.72100
O642        O  0.61162477  0.33805834  0.29086109    -0.75600
Al643      Al  0.64812926  0.34019170  0.30042298     1.49000
C644        C  0.59423331  0.33740048  0.31404430     0.91700
O645        O  0.61046823  0.27902745  0.33573759    -0.81900
O646        O  0.68194779  0.28421934  0.36974230    -0.75400
Al647      Al  0.62555119  0.30711828  0.36082153     1.90100
O648        O  0.64756852  0.25883948  0.32460505    -0.74500
O649        O  0.70145295  0.30906680  0.31393274    -0.74300
O650        O  0.66880523  0.28401845  0.27379046    -0.80000
O651        O  0.68419158  0.34725860  0.30160349    -0.78200
O652        O  0.64931087  0.31141139  0.32701987    -1.14300
O653        O  0.64338109  0.36302155  0.34320349    -0.73500
C654        C  0.64251141  0.35749364  0.37650148     0.97200
C655        C  0.62308259  0.25877530  0.32657979     0.93600
Al656      Al  0.67297800  0.28638451  0.32128296     1.55600
O657        O  0.59960680  0.32951818  0.34433312    -0.78200
C658        C  0.70346518  0.33210889  0.30221190     0.97700
C659        C  0.66535234  0.27484553  0.39013784     0.92600
O660        O  0.64279403  0.28301834  0.38860226    -0.83500
O661        O  0.44581170  0.59455287  0.02620963    -0.82900
C662        C  0.45022847  0.59040790  0.38056314     0.96400
O663        O  0.45842634  0.57356132  0.40199815    -0.72100
O664        O  0.48784677  0.59204074  0.44986029    -0.75600
Al665      Al  0.45872139  0.57000983  0.45091812     1.49000
C666        C  0.49296491  0.61280285  0.46613847     0.91700
O667        O  0.43672733  0.64999884  0.46229497    -0.81900
O668        O  0.38520424  0.59411637  0.46817799    -0.75400
Al669      Al  0.44067853  0.62016789  0.49153454     1.90100
O670        O  0.40383859  0.63640935  0.43315153    -0.74500
O671        O  0.40633881  0.56495738  0.41461387    -0.74300
O672        O  0.43185013  0.60597816  0.38888518    -0.80000
O673        O  0.43259229  0.54279581  0.44790966    -0.78200
O674        O  0.43627358  0.59656649  0.45748151    -1.14300
O675        O  0.46571796  0.56284118  0.50034079    -0.73500
C676        C  0.46487449  0.57956797  0.02493975     0.97200
C677        C  0.41730831  0.65490935  0.44408335     0.93600
Al678      Al  0.40911716  0.60000259  0.42896880     1.55600
O679        O  0.47600378  0.62455336  0.48382971    -0.78200
C680        C  0.41647302  0.54356197  0.42255395     0.97700
C681        C  0.38637993  0.60635394  0.49764232     0.92600
O682        O  0.40569509  0.61982037  0.00569551    -0.83500
O683        O  0.46638641  0.39943887  0.22716565    -0.82900
C684        C  0.45378857  0.41121235  0.36853294     0.96400
O685        O  0.46761438  0.42026544  0.34458204    -0.72100
O686        O  0.49142110  0.40144062  0.29127402    -0.75600
Al687      Al  0.46426652  0.42697973  0.29766639     1.49000
C688        C  0.49201369  0.37668210  0.28735424     0.91700
O689        O  0.42256877  0.35266961  0.27118033    -0.81900
O690        O  0.38903932  0.39826628  0.27789922    -0.75400
Al691      Al  0.44358919  0.38032645  0.25508816     1.90100
O692        O  0.41456581  0.36396535  0.32510985    -0.74500
O693        O  0.40509675  0.43662773  0.32307400    -0.74300
O694        O  0.43185322  0.40183552  0.36229363    -0.80000
O695        O  0.44140161  0.45577841  0.30912296    -0.78200
O696        O  0.43989509  0.40306055  0.29093166    -1.14300
O697        O  0.46608335  0.43831681  0.24949662    -0.73500
C698        C  0.47514447  0.42208208  0.22764066     0.97200
C699        C  0.41495995  0.34692652  0.30157133     0.93600
Al700      Al  0.41244501  0.40045097  0.31913207     1.55600
O701        O  0.47236948  0.36408964  0.27734563    -0.78200
C702        C  0.41966455  0.45611844  0.32455723     0.97700
C703        C  0.39313572  0.39798693  0.24427728     0.92600
O704        O  0.41562497  0.39553377  0.23159179    -0.83500
C705        C  0.41068473  0.49555770  0.40972256    -0.10300
C706        C  0.41226587  0.52121786  0.39736644     0.05900
C707        C  0.41077943  0.52516112  0.35985681    -0.04100
C708        C  0.41283061  0.50391964  0.33637925    -0.08500
C709        C  0.41272291  0.47827279  0.34884067     0.05000
C710        C  0.40919739  0.47441430  0.38595374    -0.03500
Br711      Br  0.40246531  0.44110930  0.40689812    -0.03200
H712        H  0.41014624  0.49193223  0.43799726     0.08900
H713        H  0.41423935  0.50746815  0.30813119     0.06900
Br714      Br  0.40590830  0.55850743  0.33742661    -0.03700
C715        C  0.55449621  0.33841403  0.27641076    -0.10300
C716        C  0.56753871  0.34630282  0.30714538     0.05900
C717        C  0.55390580  0.36107760  0.33280721    -0.04100
C718        C  0.52928374  0.37029524  0.32570487    -0.08500
C719        C  0.51653913  0.36322350  0.29474589     0.05000
C720        C  0.52869877  0.34581005  0.27085437    -0.03500
Br721      Br  0.51091567  0.33125252  0.23107436    -0.03200
H722        H  0.56404228  0.32574438  0.25742145     0.08900
H723        H  0.51977430  0.38287866  0.34489750     0.06900
Br724      Br  0.56698854  0.36913316  0.37874636    -0.03700
C725        C  0.72519473  0.35091885  0.24878941    -0.10300
C726        C  0.72754828  0.33943155  0.28277701     0.05900
C727        C  0.75169363  0.32902070  0.29228040    -0.04100
C728        C  0.77188347  0.32837488  0.26745088    -0.08500
C729        C  0.76846233  0.33658704  0.23215215     0.05000
C730        C  0.74519078  0.34909412  0.22338575    -0.03500
Br731      Br  0.73883149  0.36097689  0.17612211    -0.03200
H732        H  0.70677948  0.35872404  0.24049824     0.08900
H733        H  0.78991867  0.31949423  0.27515452     0.06900
Br734      Br  0.75753764  0.31332419  0.33780695    -0.03700
C735        C  0.58142066  0.19839274  0.33475734    -0.10300
C736        C  0.59031525  0.18393449  0.30559877     0.05900
C737        C  0.60724161  0.19564704  0.28127943    -0.04100
C738        C  0.61755313  0.22012888  0.28858600    -0.08500
C739        C  0.60967488  0.23423994  0.31856172     0.05000
C740        C  0.59045412  0.22375843  0.34089926    -0.03500
Br741      Br  0.57637411  0.24264616  0.38048101    -0.03200
H742        H  0.56756526  0.18988554  0.35283501     0.08900
H743        H  0.63141076  0.22847183  0.27033778     0.06900
Br744      Br  0.61489146  0.18030141  0.23619399    -0.03700
C745        C  0.55773569  0.98731943  0.37874230    -0.10300
C746        C  0.57937357  0.98330916  0.40014779     0.05900
C747        C  0.60174682  0.99758382  0.39248110    -0.04100
C748        C  0.60155209  0.01656436  0.36530368    -0.08500
C749        C  0.57961954  0.02086321  0.34398947     0.05000
C750        C  0.55781156  0.00500439  0.35049706    -0.03500
Br751      Br  0.52691462  0.00566530  0.32274078    -0.03200
H752        H  0.54064053  0.97579276  0.38311477     0.08900
H753        H  0.61847528  0.02845255  0.36141285     0.06900
Br754      Br  0.63231516  0.99289781  0.41993793    -0.03700
C755        C  0.43508805  0.13062671  0.33242534    -0.10300
C756        C  0.42623672  0.14859745  0.30739520     0.05900
C757        C  0.44247474  0.15677051  0.27995450    -0.04100
C758        C  0.46784710  0.14778230  0.27884362    -0.08500
C759        C  0.47721526  0.12998228  0.30437143     0.05000
C760        C  0.46002587  0.12061695  0.33067854    -0.03500
Br761      Br  0.46793592  0.09339186  0.36412412    -0.03200
H762        H  0.42258067  0.12461889  0.35386040     0.08900
H763        H  0.48009784  0.15447965  0.25746014     0.06900
Br764      Br  0.43034009  0.17921187  0.24283030    -0.03700
C765        C  0.23816264  0.20122262  0.24294445    -0.10300
C766        C  0.23175391  0.17803320  0.22514339     0.05900
C767        C  0.24351899  0.15464339  0.23650903    -0.04100
C768        C  0.26153581  0.15487177  0.26436530    -0.08500
C769        C  0.26819825  0.17817756  0.28224388     0.05000
C770        C  0.25578477  0.20156297  0.27109594    -0.03500
Br771      Br  0.26235846  0.23528964  0.29120535    -0.03200
H772        H  0.22884578  0.21938240  0.23548947     0.08900
H773        H  0.27113084  0.13671889  0.27118906     0.06900
Br774      Br  0.23722734  0.12230917  0.21252670    -0.03700
C775        C  0.37380464  0.29050094  0.33115720    -0.10300
C776        C  0.38684031  0.26947620  0.31550813     0.05900
C777        C  0.41054594  0.27351497  0.29860028    -0.04100
C778        C  0.41958418  0.29900902  0.29435954    -0.08500
C779        C  0.40604134  0.32030954  0.30900134     0.05000
C780        C  0.38352793  0.31573261  0.32894380    -0.03500
Br781      Br  0.36457595  0.34285000  0.35283873    -0.03200
H782        H  0.35602048  0.28719185  0.34549015     0.08900
H783        H  0.43737169  0.30220950  0.28000541     0.06900
Br784      Br  0.43123721  0.24499755  0.28181792    -0.03700
C785        C  0.34847999  0.13449202  0.44248429    -0.10300
C786        C  0.35552231  0.12468069  0.40899538     0.05900
C787        C  0.37228489  0.10292143  0.40774069    -0.04100
C788        C  0.38433925  0.09380860  0.43882085    -0.08500
C789        C  0.37933198  0.10553094  0.47186506     0.05000
C790        C  0.36001219  0.12498847  0.47363840    -0.03500
Br791      Br  0.35140162  0.14176624  0.51756357    -0.03200
H792        H  0.33603269  0.15151635  0.44415396     0.08900
H793        H  0.39935278  0.07912369  0.43663256     0.06900
Br794      Br  0.38176539  0.08739542  0.36334270    -0.03700
C795        C  0.52684601  0.11932839  0.41133595    -0.10300
C796        C  0.54670577  0.10084403  0.40985304     0.05900
C797        C  0.54644388  0.07995488  0.43398864    -0.04100
C798        C  0.52508529  0.07588711  0.45587151    -0.08500
C799        C  0.50390811  0.09309705  0.45543318     0.05000
C800        C  0.50563349  0.11586367  0.43378028    -0.03500
Br801      Br  0.48013147  0.14323618  0.93187448    -0.03200
H802        H  0.52654565  0.13522577  0.39231958     0.08900
H803        H  0.52503125  0.05898314  0.47315108     0.06900
Br804      Br  0.57434548  0.05542393  0.43564499    -0.03700
C805        C  0.46505474  0.06531088  0.18001877    -0.10300
C806        C  0.46075224  0.08942929  0.16298630     0.05900
C807        C  0.47515782  0.11119170  0.17305946    -0.04100
C808        C  0.49583864  0.10789943  0.19593930    -0.08500
C809        C  0.50185514  0.08325238  0.21039249     0.05000
C810        C  0.48520152  0.06220001  0.20416753    -0.03500
Br811      Br  0.49057045  0.02839451  0.22500334    -0.03200
H812        H  0.45430748  0.04825964  0.17191886     0.08900
H813        H  0.50746549  0.12476442  0.20208958     0.06900
Br814      Br  0.46962789  0.14492979  0.15204268    -0.03700
C815        C  0.46632647  0.98710242  0.13346950    -0.10300
C816        C  0.44582996  0.98124109  0.15673163     0.05900
C817        C  0.42222626  0.99430417  0.15043085    -0.04100
C818        C  0.41958375  0.01186729  0.12164167    -0.08500
C819        C  0.43992110  0.01709926  0.09765747     0.05000
C820        C  0.46360555  0.00407770  0.10422029    -0.03500
Br821      Br  0.49369048  0.00849217  0.07526138    -0.03200
H822        H  0.48482070  0.97790780  0.13752404     0.08900
H823        H  0.40142198  0.02204512  0.11855595     0.06900
Br824      Br  0.39315735  0.99033607  0.18131716    -0.03700
C825        C  0.53426851  0.91980919  0.29003739    -0.10300
C826        C  0.51288116  0.90351931  0.29479518     0.05900
C827        C  0.51433240  0.88355379  0.32097423    -0.04100
C828        C  0.53639659  0.88067109  0.34151740    -0.08500
C829        C  0.55623204  0.89889408  0.33958566     0.05000
C830        C  0.55563175  0.91777384  0.31242319    -0.03500
Br831      Br  0.58254537  0.94294603  0.30792106    -0.03200
H832        H  0.53422797  0.93449968  0.26936552     0.08900
H833        H  0.53610797  0.86672957  0.36319721     0.06900
Br834      Br  0.48601392  0.86144175  0.33414522    -0.03700
C835        C  0.47970799  0.92643934  0.03253274    -0.10300
C836        C  0.50519840  0.93512661  0.03575097     0.05900
C837        C  0.51482208  0.94184254  0.06890375    -0.04100
C838        C  0.50080628  0.93546173  0.09881378    -0.08500
C839        C  0.47674173  0.92317772  0.09610771     0.05000
C840        C  0.46523882  0.92048756  0.06279383    -0.03500
Br841      Br  0.43188940  0.90541414  0.05717876    -0.03200
H842        H  0.47220057  0.92131115  0.00678369     0.08900
H843        H  0.50945531  0.93892912  0.12443683     0.06900
Br844      Br  0.54830367  0.95687208  0.07431433    -0.03700
C845        C  0.52186223  0.65056233  0.47312828    -0.10300
C846        C  0.51899561  0.62390476  0.46506392     0.05900
C847        C  0.54106085  0.60875146  0.45723168    -0.04100
C848        C  0.56491398  0.62089505  0.45468401    -0.08500
C849        C  0.56737622  0.64786949  0.46042052     0.05000
C850        C  0.54577007  0.66254270  0.47113995    -0.03500
Br851      Br  0.54777445  0.69861602  0.48474052    -0.03200
H852        H  0.50535739  0.66235653  0.48063280     0.08900
H853        H  0.58152721  0.60926757  0.44710113     0.06900
Br854      Br  0.54051523  0.57146799  0.45104514    -0.03700
C855        C  0.58279375  0.80635694  0.43004177    -0.10300
C856        C  0.59788231  0.82411477  0.44877230     0.05900
C857        C  0.62154301  0.81571319  0.46288550    -0.04100
C858        C  0.63004840  0.79011159  0.45722886    -0.08500
C859        C  0.61514323  0.77232926  0.43804858     0.05000
C860        C  0.59111370  0.78068692  0.42447390    -0.03500
Br861      Br  0.56905676  0.75900778  0.39642528    -0.03200
H862        H  0.56459364  0.81266973  0.41903890     0.08900
H863        H  0.64823404  0.78394803  0.46846701     0.06900
Br864      Br  0.64205741  0.83744353  0.49253328    -0.03700
C865        C  0.74527993  0.66471868  0.03642344    -0.10300
C866        C  0.76936577  0.67112631  0.02226283     0.05900
C867        C  0.77145479  0.67265413  0.48453840    -0.04100
C868        C  0.74946619  0.67205540  0.46300854    -0.08500
C869        C  0.72529896  0.66636433  0.47711414     0.05000
C870        C  0.72391058  0.66041230  0.01419134    -0.03500
Br871      Br  0.69421913  0.64521668  0.03642996    -0.03200
H872        H  0.74330921  0.66191501  0.06475312     0.08900
H873        H  0.75142403  0.67524455  0.43474286     0.06900
Br874      Br  0.80340798  0.67393466  0.45921972    -0.03700
C875        C  0.90995227  0.19333838  0.15545551    -0.10300
C876        C  0.89551276  0.17141897  0.16516416     0.05900
C877        C  0.86868987  0.17407476  0.16835173    -0.04100
C878        C  0.85709094  0.19878720  0.16453214    -0.08500
C879        C  0.87164928  0.22124611  0.15652196     0.05000
C880        C  0.89843762  0.21790082  0.15056187    -0.03500
Br881      Br  0.92130261  0.24569379  0.13742096    -0.03200
H882        H  0.93065804  0.19153437  0.15310604     0.08900
H883        H  0.83665758  0.20047439  0.16925235     0.06900
Br884      Br  0.84742389  0.14505638  0.18124823    -0.03700
C885        C  0.03967438  0.14611508  0.23024968    -0.10300
C886        C  0.02053575  0.15260244  0.20554278     0.05900
C887        C  0.02679060  0.16845512  0.17645805    -0.04100
C888        C  0.05229332  0.17629997  0.17148682    -0.08500
C889        C  0.07187729  0.16817454  0.19487605     0.05000
C890        C  0.06514261  0.15364008  0.22519342    -0.03500
Br891      Br  0.08954650  0.14320172  0.26059589    -0.03200
H892        H  0.03496118  0.13393692  0.25286260     0.08900
H893        H  0.05704214  0.18759008  0.14809012     0.06900
Br894      Br  0.00201965  0.17710338  0.14076023    -0.03700
C895        C  0.90716287  0.80531102  0.05490857    -0.10300
C896        C  0.89829203  0.82861382  0.07061966     0.05900
C897        C  0.87568035  0.82785274  0.09168824    -0.04100
C898        C  0.86255946  0.80415689  0.09626431    -0.08500
C899        C  0.87157533  0.78117342  0.08016008     0.05000
C900        C  0.89401475  0.78187997  0.05938220    -0.03500
Br901      Br  0.90697944  0.75142369  0.03538315    -0.03200
H902        H  0.92419480  0.80532685  0.03829395     0.08900
H903        H  0.84554457  0.80356469  0.11289932     0.06900
Br904      Br  0.86232057  0.85786361  0.11630932    -0.03700
C905        C  0.91459675  0.99022302  0.11980567    -0.10300
C906        C  0.93583907  0.98544307  0.09697572     0.05900
C907        C  0.95897254  0.99845498  0.10527521    -0.04100
C908        C  0.96035281  0.01512726  0.13494897    -0.08500
C909        C  0.93898524  0.02061981  0.15709470     0.05000
C910        C  0.91592704  0.00745562  0.14915408    -0.03500
Br911      Br  0.88612477  0.01063641  0.17886179    -0.03200
H912        H  0.89680488  0.97987033  0.11543838     0.08900
H913        H  0.97858391  0.02421843  0.14040532     0.06900
Br914      Br  0.99013863  0.99368323  0.07861027    -0.03700
C915        C  0.13440959  0.29975811  0.18197555    -0.10300
C916        C  0.11966403  0.27695490  0.17985235     0.05900
C917        C  0.09264299  0.27890374  0.17978211    -0.04100
C918        C  0.08088443  0.30332627  0.18315733    -0.08500
C919        C  0.09555834  0.32611771  0.18542063     0.05000
C920        C  0.12255613  0.32432680  0.18427313    -0.03500
Br921      Br  0.14405874  0.35450462  0.18725452    -0.03200
H922        H  0.15520106  0.29846417  0.18131867     0.08900
H923        H  0.06009340  0.30454724  0.18439498     0.06900
Br924      Br  0.07069548  0.24897358  0.17704192    -0.03700
C925        C  0.95971987  0.33471067  0.21907008    -0.10300
C926        C  0.97339391  0.34503575  0.19018040     0.05900
C927        C  0.96118167  0.34615801  0.15695272    -0.04100
C928        C  0.93582430  0.33781199  0.15321321    -0.08500
C929        C  0.92139741  0.32915153  0.18245816     0.05000
C930        C  0.93385033  0.32720440  0.21566583    -0.03500
Br931      Br  0.91669519  0.31523479  0.25754980    -0.03200
H932        H  0.96857925  0.33419821  0.24496131     0.08900
H933        H  0.92688660  0.33957772  0.12743332     0.06900
Br934      Br  0.97753028  0.36086947  0.11606154    -0.03700
C935        C  0.03420034  0.49234629  0.14076896    -0.10300
C936        C  0.05691293  0.48014266  0.15281939     0.05900
C937        C  0.08016084  0.48768837  0.13608622    -0.04100
C938        C  0.08005364  0.50667668  0.10865620    -0.08500
C939        C  0.05705491  0.51812142  0.09591230     0.05000
C940        C  0.03388942  0.51046942  0.11288507    -0.03500
Br941      Br  0.00046929  0.52414721  0.10158273    -0.03200
H942        H  0.01590461  0.48705803  0.15244747     0.08900
H943        H  0.09822058  0.51249615  0.09708692     0.06900
Br944      Br  0.11261803  0.47226668  0.14818120    -0.03700
C945        C  0.96462889  0.65853537  0.02642118    -0.10300
C946        C  0.97736119  0.64865145  0.05651670     0.05900
C947        C  0.96635818  0.65308913  0.09025888    -0.04100
C948        C  0.94274007  0.66609569  0.09314067    -0.08500
C949        C  0.92930532  0.67409822  0.06287847     0.05000
C950        C  0.94056694  0.67068912  0.02933487    -0.03500
Br951      Br  0.92347825  0.68177966  0.98692801    -0.03200
H952        H  0.97271548  0.65560339  0.00025640     0.08900
H953        H  0.93404434  0.66851397  0.11910276     0.06900
Br954      Br  0.98194844  0.64146750  0.13339989    -0.03700
C955        C  0.36233657  0.39578844  0.15498542    -0.10300
C956        C  0.34780417  0.37301726  0.15923502     0.05900
C957        C  0.34217044  0.36441615  0.19396925    -0.04100
C958        C  0.35377383  0.37635874  0.22324537    -0.08500
C959        C  0.37182321  0.39630303  0.21836654     0.05000
C960        C  0.37454234  0.40728988  0.18414564    -0.03500
Br961      Br  0.39791690  0.43542565  0.17507991    -0.03200
H962        H  0.36713244  0.40250798  0.12854745     0.08900
H963        H  0.35150600  0.36749176  0.24914877     0.06900
Br964      Br  0.32255829  0.33335913  0.20221000    -0.03700
C965        C  0.36086219  0.26603674  0.47101994    -0.10300
C966        C  0.34667557  0.28917836  0.46767840     0.05900
C967        C  0.33044957  0.29227269  0.43833467    -0.04100
C968        C  0.32795998  0.27192295  0.41364448    -0.08500
C969        C  0.34071846  0.24774018  0.41846248     0.05000
C970        C  0.35756735  0.24515562  0.44779616    -0.03500
Br971      Br  0.37564934  0.21356175  0.46054867    -0.03200
H972        H  0.37259600  0.26309277  0.49428898     0.08900
H973        H  0.31555241  0.27490818  0.39102048     0.06900
Br974      Br  0.31017112  0.32337495  0.93240042    -0.03700
C975        C  0.32016517  0.22522313  0.16692668    -0.10300
C976        C  0.33728614  0.24638432  0.16796756     0.05900
C977        C  0.35962221  0.24386411  0.18944451    -0.04100
C978        C  0.36331700  0.22158331  0.21018425    -0.08500
C979        C  0.34464693  0.20220312  0.21222276     0.05000
C980        C  0.32361054  0.20347373  0.18903767    -0.03500
Br981      Br  0.29819211  0.17666139  0.18903420    -0.03200
H982        H  0.30360433  0.22589151  0.14965900     0.08900
H983        H  0.37928775  0.22111006  0.22857128     0.06900
Br984      Br  0.38588058  0.26981015  0.19459128    -0.03700
C985        C  0.37291661  0.20546510  0.09008744    -0.10300
C986        C  0.38324080  0.22666741  0.07155088     0.05900
C987        C  0.40647220  0.22375156  0.05309103    -0.04100
C988        C  0.41836275  0.19922315  0.05166467    -0.08500
C989        C  0.40766452  0.17744257  0.06918298     0.05000
C990        C  0.38503399  0.18103408  0.08952231    -0.03500
Br991      Br  0.37020240  0.15417784  0.11857213    -0.03200
H992        H  0.35554563  0.20809172  0.10567253     0.08900
H993        H  0.43580850  0.19715717  0.03613137     0.06900
Br994      Br  0.42241749  0.25267042  0.02942511    -0.03700
C995        C  0.23462486  0.34624937  0.49702561    -0.10300
C996        C  0.22979284  0.32419991  0.47551066     0.05900
C997        C  0.24383075  0.30093063  0.98314120    -0.04100
C998        C  0.26105214  0.29996941  0.01168392    -0.08500
C999        C  0.26597683  0.32188790  0.03283956     0.05000
C1000       C  0.25298405  0.34556610  0.52450602    -0.03500
Br1001     Br  0.25877511  0.37679321  0.55128024    -0.03200
H1002       H  0.22384952  0.36414491  0.49275464     0.08900
H1003       H  0.27191710  0.28213270  0.01603887     0.06900
Br1004     Br  0.24234380  0.26960130  0.95520058    -0.03700
C1005       C  0.11585517  0.39075658  0.35448540    -0.10300
C1006       C  0.13543871  0.37220693  0.34818796     0.05900
C1007       C  0.14154733  0.36614177  0.31263183    -0.04100
C1008       C  0.12760059  0.37750402  0.28462972    -0.08500
C1009       C  0.10632204  0.39395218  0.29101672     0.05000
C1010       C  0.10106736  0.40115046  0.32649848    -0.03500
Br1011     Br  0.07238761  0.42320521  0.33838615    -0.03200
H1012       H  0.11006941  0.39493811  0.38152418     0.08900
H1013       H  0.13156777  0.37102421  0.25792770     0.06900
Br1014     Br  0.16595269  0.33909654  0.30124144    -0.03700
C1015       C  0.17893078  0.27542133  0.08959043    -0.10300
C1016       C  0.16511624  0.25204055  0.08531204     0.05900
C1017       C  0.14381481  0.25220993  0.06188076    -0.04100
C1018       C  0.13745920  0.27484277  0.04325764    -0.08500
C1019       C  0.15336672  0.29667541  0.04408743     0.05000
C1020       C  0.17336256  0.29744618  0.06892756    -0.03500
Br1021     Br  0.19465453  0.32765118  0.07312744    -0.03200
H1022       H  0.19452823  0.27645579  0.10843724     0.08900
H1023       H  0.12234595  0.27386360  0.02358479     0.06900
Br1024     Br  0.12324162  0.22236719  0.05065048    -0.03700
C1025       C  0.14265784  0.24832995  0.32124430    -0.10300
C1026       C  0.16550226  0.24978983  0.34100909     0.05900
C1027       C  0.18462789  0.23054121  0.33608092    -0.04100
C1028       C  0.18120120  0.21132717  0.31016373    -0.08500
C1029       C  0.15886374  0.21091026  0.28932682     0.05000
C1030       C  0.13922838  0.22915558  0.29573393    -0.03500
Br1031     Br  0.10907101  0.23122526  0.26661314    -0.03200
H1032       H  0.12730115  0.26243190  0.32522726     0.08900
H1033       H  0.19687490  0.19794343  0.30427534     0.06900
Br1034     Br  0.21615686  0.23041427  0.36228811    -0.03700
C1035       C  0.96371701  0.93561168  0.17624209    -0.10300
C1036       C  0.96070191  0.91180627  0.15820765     0.05900
C1037       C  0.97740196  0.89096740  0.16577463    -0.04100
C1038       C  0.99846805  0.89493636  0.18776710    -0.08500
C1039       C  0.00292847  0.91941689  0.20349559     0.05000
C1040       C  0.98452320  0.93951547  0.19900858    -0.03500
Br1041     Br  0.98810440  0.97342379  0.22010527    -0.03200
H1042       H  0.95144023  0.95209873  0.16966266     0.08900
H1043       H  0.01153406  0.87873316  0.19238288     0.06900
Br1044     Br  0.97429539  0.85795203  0.14204566    -0.03700
C1045       C  0.02506564  0.92823642  0.45531624    -0.10300
C1046       C  0.00353102  0.91191536  0.45173865     0.05900
C1047       C  0.00362115  0.89326278  0.42390411    -0.04100
C1048       C  0.02463928  0.89140703  0.40088246    -0.08500
C1049       C  0.04528402  0.90869672  0.40325121     0.05000
C1050       C  0.04556152  0.92699206  0.43104917    -0.03500
Br1051     Br  0.07313914  0.95138708  0.43553824    -0.03200
H1052       H  0.02602055  0.94203904  0.47702281     0.08900
H1053       H  0.02356373  0.87813143  0.37855053     0.06900
Br1054     Br  0.97481736  0.87132336  0.41292685    -0.03700
C1055       C  0.13055275  0.10333275  0.10574911    -0.10300
C1056       C  0.14526040  0.12575966  0.09916801     0.05900
C1057       C  0.15078819  0.13227519  0.06357812    -0.04100
C1058       C  0.13889624  0.11890761  0.03566186    -0.08500
C1059       C  0.12110142  0.09897411  0.04243655     0.05000
C1060       C  0.11868155  0.08984613  0.07772287    -0.03500
Br1061     Br  0.09747050  0.06043616  0.08911989    -0.03200
H1062       H  0.12610634  0.09786053  0.13281335     0.08900
H1063       H  0.14125769  0.12629607  0.00893775     0.06900
Br1064     Br  0.17199041  0.16158882  0.05192033    -0.03700
C1065       C  0.09689592  0.22430719  0.46956824    -0.10300
C1066       C  0.11906820  0.22559273  0.44847655     0.05900
C1067       C  0.13017631  0.20236276  0.43558075    -0.04100
C1068       C  0.11842208  0.17847769  0.44210990    -0.08500
C1069       C  0.09617888  0.17692948  0.46302626     0.05000
C1070       C  0.08589102  0.20008417  0.47799075    -0.03500
Br1071     Br  0.05746824  0.20004415  0.51042655    -0.03200
H1072       H  0.08856523  0.24210608  0.48029009     0.08900
H1073       H  0.12703337  0.16086285  0.43122074     0.06900
Br1074     Br  0.16165375  0.20182879  0.40949971    -0.03700
C1075       C  0.04808493  0.02424191  0.36746821    -0.10300
C1076       C  0.06776039  0.02895749  0.39225364     0.05900
C1077       C  0.09078987  0.01439734  0.38831176    -0.04100
C1078       C  0.09321295  0.99537834  0.36124178    -0.08500
C1079       C  0.07318421  0.99021337  0.33702833     0.05000
C1080       C  0.05042895  0.00548710  0.34046428    -0.03500
Br1081     Br  0.02058069  0.00147745  0.31112433    -0.03200
H1082       H  0.03031582  0.03534126  0.36890819     0.08900
H1083       H  0.11072169  0.98385698  0.35998208     0.06900
Br1084     Br  0.11922658  0.01844919  0.41990113    -0.03700
C1085       C  0.96043562  0.07156291  0.07083657    -0.10300
C1086       C  0.97362547  0.07523250  0.10273371     0.05900
C1087       C  0.99943917  0.06534415  0.10535193    -0.04100
C1088       C  0.01142765  0.05454243  0.07613981    -0.08500
C1089       C  0.00037872  0.05708920  0.04318149     0.05000
C1090       C  0.97384456  0.06254216  0.04084338    -0.03500
Br1091     Br  0.95610661  0.06188923  0.49563993    -0.03200
H1092       H  0.94044557  0.07731446  0.06856502     0.08900
H1093       H  0.03162827  0.04924784  0.07781349     0.06900
Br1094     Br  0.02237561  0.06672295  0.14523882    -0.03700
C1095       C  0.98822255  0.11351436  0.32960318    -0.10300
C1096       C  0.99476459  0.09500634  0.30375513     0.05900
C1097       C  0.02003564  0.08473187  0.30275440    -0.04100
C1098       C  0.03746123  0.09193618  0.32917092    -0.08500
C1099       C  0.03054850  0.11091277  0.35440415     0.05000
C1100       C  0.00647816  0.12339256  0.35191955    -0.03500
Br1101     Br  0.99636811  0.15270681  0.38069902    -0.03200
H1102       H  0.96926855  0.12248110  0.33006596     0.08900
H1103       H  0.05588677  0.08204066  0.33081290     0.06900
Br1104     Br  0.03237418  0.06258852  0.26529701    -0.03700
C1105       C  0.52991843  0.16221071  0.05375858    -0.10300
C1106       C  0.52744910  0.13515025  0.05054791     0.05900
C1107       C  0.54951024  0.11962749  0.04473819    -0.04100
C1108       C  0.57351934  0.13132365  0.04225314    -0.08500
C1109       C  0.57645854  0.15825191  0.04765769     0.05000
C1110       C  0.55412083  0.17386860  0.05326068    -0.03500
Br1111     Br  0.55442744  0.21090260  0.06157679    -0.03200
H1112       H  0.51292373  0.17426318  0.05758056     0.08900
H1113       H  0.59014407  0.11895947  0.03753772     0.06900
Br1114     Br  0.54832055  0.08249030  0.54032452    -0.03700
C1115       C  0.69323767  0.22462489  0.45187986    -0.10300
C1116       C  0.67050369  0.21119528  0.46135714     0.05900
C1117       C  0.64828538  0.21498266  0.44128049    -0.04100
C1118       C  0.64803904  0.23484924  0.41630470    -0.08500
C1119       C  0.66952968  0.25112145  0.41105459     0.05000
C1120       C  0.69300863  0.24431109  0.42643474    -0.03500
Br1121     Br  0.72443722  0.26240761  0.41650070    -0.03200
H1122       H  0.71076759  0.22165738  0.46670647     0.08900
H1123       H  0.63027527  0.23859736  0.40241399     0.06900
Br1124     Br  0.61698566  0.19688048  0.94958024    -0.03700
C1125       C  0.68903560  0.25556499  0.18010505    -0.10300
C1126       C  0.66615519  0.24574647  0.16648797     0.05900
C1127       C  0.64259015  0.25877946  0.17522515    -0.04100
C1128       C  0.64250147  0.28009369  0.19812072    -0.08500
C1129       C  0.66501299  0.28811488  0.21419994     0.05000
C1130       C  0.68854980  0.27611519  0.20437606    -0.03500
Br1131     Br  0.72028583  0.28481729  0.22654683    -0.03200
H1132       H  0.70722396  0.24639946  0.17327310     0.08900
H1133       H  0.62430560  0.28859486  0.20644802     0.06900
Br1134     Br  0.60897189  0.24912119  0.15932694    -0.03700
C1135       C  0.61467136  0.09708186  0.17966526    -0.10300
C1136       C  0.62381195  0.10582618  0.21256875     0.05900
C1137       C  0.64583491  0.12173545  0.21282718    -0.04100
C1138       C  0.65545235  0.13211092  0.18080843    -0.08500
C1139       C  0.64426643  0.12569260  0.14806903     0.05000
C1140       C  0.62505416  0.10644972  0.14770462    -0.03500
Br1141     Br  0.61028707  0.09483154  0.10417372    -0.03200
H1142       H  0.59782987  0.08475270  0.17879094     0.08900
H1143       H  0.67023237  0.14690868  0.18178485     0.06900
Br1144     Br  0.66118631  0.13239116  0.25658176    -0.03700
C1145       C  0.95041091  0.18244531  0.47197603    -0.10300
C1146       C  0.92891770  0.16760336  0.48216287     0.05900
C1147       C  0.93279109  0.14453736  0.50175331    -0.04100
C1148       C  0.95777018  0.13501030  0.50637157    -0.08500
C1149       C  0.97899448  0.14786835  0.49146495     0.05000
C1150       C  0.97538257  0.17277535  0.47645675    -0.03500
Br1151     Br  0.00305882  0.19278084  0.45713644    -0.03200
H1152       H  0.94768665  0.20056589  0.45753041     0.08900
H1153       H  0.96049046  0.11632393  0.51920395     0.06900
Br1154     Br  0.90497828  0.12301210  0.51768989    -0.03700
C1155       C  0.86254618  0.11885600  0.29605916    -0.10300
C1156       C  0.88537357  0.10429555  0.29278738     0.05900
C1157       C  0.89775022  0.09657253  0.32461948    -0.04100
C1158       C  0.88962139  0.10637325  0.35784420    -0.08500
C1159       C  0.86861703  0.12357236  0.36055521     0.05000
C1160       C  0.85408166  0.12818158  0.32939910    -0.03500
Br1161     Br  0.82445427  0.15065046  0.33046894    -0.03200
H1162       H  0.85278500  0.12546238  0.27236507     0.08900
H1163       H  0.90140628  0.10273128  0.38093959     0.06900
Br1164     Br  0.92804343  0.07514707  0.32352746    -0.03700
C1165       C  0.80982004  0.21624470  0.05670773    -0.10300
C1166       C  0.81535397  0.22819293  0.02414363     0.05900
C1167       C  0.80757047  0.25495872  0.01935161    -0.04100
C1168       C  0.79763144  0.26920081  0.04753813    -0.08500
C1169       C  0.79660881  0.25837721  0.08108363     0.05000
C1170       C  0.79974275  0.23113634  0.08480786    -0.03500
Br1171     Br  0.79160438  0.21421979  0.12860873    -0.03200
H1172       H  0.81358695  0.19559640  0.06047341     0.08900
H1173       H  0.79476498  0.29011254  0.04452420     0.06900
Br1174     Br  0.81485607  0.27667100  0.47845396    -0.03700
C1175       C  0.81772498  0.24257686  0.31407628    -0.10300
C1176       C  0.84246020  0.23869211  0.32713601     0.05900
C1177       C  0.86220970  0.25680717  0.31831117    -0.04100
C1178       C  0.85671095  0.27758691  0.29600152    -0.08500
C1179       C  0.83271438  0.27975199  0.28049230     0.05000
C1180       C  0.81280291  0.26261341  0.29046210    -0.03500
Br1181     Br  0.77957884  0.26270820  0.26880819    -0.03200
H1182       H  0.80232463  0.22937388  0.32115267     0.08900
H1183       H  0.87205558  0.29034386  0.28757532     0.06900
Br1184     Br  0.89747224  0.25508598  0.33369896    -0.03700
C1185       C  0.78002209  0.16236788  0.00540452    -0.10300
C1186       C  0.77518628  0.16827556  0.47008815     0.05900
C1187       C  0.74973722  0.17364747  0.46036129    -0.04100
C1188       C  0.73022536  0.17310712  0.48610187    -0.08500
C1189       C  0.73533736  0.17010973  0.02214847     0.05000
C1190       C  0.76066037  0.16388349  0.03171112    -0.03500
Br1191     Br  0.76911991  0.15567955  0.07970995    -0.03200
H1192       H  0.79939446  0.15758098  0.01353748     0.08900
H1193       H  0.71071567  0.17554429  0.47730039     0.06900
Br1194     Br  0.74057848  0.18143296  0.41224225    -0.03700
C1195       C  0.64051379  0.38010621  0.46972119    -0.10300
C1196       C  0.61789571  0.39511782  0.46868576     0.05900
C1197       C  0.60945160  0.40472500  0.43567524    -0.04100
C1198       C  0.62153522  0.39638677  0.40408570    -0.08500
C1199       C  0.64134951  0.37762948  0.40500463     0.05000
C1200       C  0.65246172  0.37173046  0.43822071    -0.03500
Br1201     Br  0.68213368  0.34935922  0.44155830    -0.03200
H1202       H  0.64760296  0.37293941  0.49489061     0.08900
H1203       H  0.61318138  0.40185552  0.37890438     0.06900
Br1204     Br  0.57945423  0.42661747  0.43270706    -0.03700
C1205       C  0.49603039  0.43329152  0.44151325    -0.10300
C1206       C  0.50126368  0.40942625  0.45778828     0.05900
C1207       C  0.48634005  0.38720271  0.44915125    -0.04100
C1208       C  0.46828031  0.38877183  0.42211029    -0.08500
C1209       C  0.46483928  0.41211596  0.40376424     0.05000
C1210       C  0.47805555  0.43479833  0.41457903    -0.03500
Br1211     Br  0.47380969  0.46812493  0.39205550    -0.03200
H1212       H  0.50654986  0.45064580  0.44897961     0.08900
H1213       H  0.45818930  0.37134084  0.41387839     0.06900
Br1214     Br  0.48852674  0.35437238  0.97339364    -0.03700
C1215       C  0.52921863  0.44786024  0.16970129    -0.10300
C1216       C  0.54276002  0.42414282  0.16328688     0.05900
C1217       C  0.53777409  0.40271334  0.18494027    -0.04100
C1218       C  0.51650960  0.40357458  0.20746450    -0.08500
C1219       C  0.49996148  0.42561590  0.20894031     0.05000
C1220       C  0.50748521  0.44858173  0.19180016    -0.03500
Br1221     Br  0.48690095  0.47979804  0.19314711    -0.03200
H1222       H  0.53316799  0.46463437  0.15365493     0.08900
H1223       H  0.51194805  0.38644179  0.22172838     0.06900
Br1224     Br  0.55638513  0.37039772  0.18005739    -0.03700
C1225       C  0.59419971  0.30561115  0.04880548    -0.10300
C1226       C  0.60297175  0.32588049  0.07083893     0.05900
C1227       C  0.62561344  0.32173195  0.09064275    -0.04100
C1228       C  0.63826969  0.29738326  0.08904752    -0.08500
C1229       C  0.62890958  0.27714048  0.06759429     0.05000
C1230       C  0.60705756  0.28164748  0.04682893    -0.03500
Br1231     Br  0.59492158  0.25600905  0.01393729    -0.03200
H1232       H  0.57746896  0.30855618  0.03225599     0.08900
H1233       H  0.65488504  0.29390151  0.10564311     0.06900
Br1234     Br  0.63922269  0.34776340  0.12181630    -0.03700
C1235       C  0.45429699  0.38332450  0.05878380    -0.10300
C1236       C  0.47568320  0.36786688  0.06786419     0.05900
C1237       C  0.47169647  0.34187791  0.07862946    -0.04100
C1238       C  0.44678767  0.33165474  0.07905314    -0.08500
C1239       C  0.42527961  0.34687594  0.06904141     0.05000
C1240       C  0.42937378  0.37325722  0.05923147    -0.03500
Br1241     Br  0.40239474  0.39715116  0.04604638    -0.03200
H1242       H  0.45703973  0.40332064  0.05012697     0.08900
H1243       H  0.44430991  0.31161872  0.08763148     0.06900
Br1244     Br  0.49930289  0.31992264  0.09482396    -0.03700
C1245       C  0.61215684  0.60749855  0.34659201    -0.10300
C1246       C  0.63213722  0.62594144  0.34797708     0.05900
C1247       C  0.64268256  0.63441724  0.31533703    -0.04100
C1248       C  0.63244731  0.62591545  0.28279030    -0.08500
C1249       C  0.61121013  0.60913760  0.28148245     0.05000
C1250       C  0.60169935  0.59922516  0.31394143    -0.03500
Br1251     Br  0.57243603  0.57664070  0.31499157    -0.03200
H1252       H  0.60291643  0.60144835  0.37101188     0.08900
H1253       H  0.63962132  0.63443050  0.25842971     0.06900
Br1254     Br  0.66865815  0.66076383  0.31375590    -0.03700
C1255       C  0.46569144  0.61499969  0.32817892    -0.10300
C1256       C  0.46383094  0.59128601  0.34628160     0.05900
C1257       C  0.47841384  0.56942202  0.33404296    -0.04100
C1258       C  0.49569822  0.57229288  0.30622291    -0.08500
C1259       C  0.49883512  0.59639440  0.28969694     0.05000
C1260       C  0.48287177  0.61772855  0.29991116    -0.03500
Br1261     Br  0.48237696  0.65084339  0.27588082    -0.03200
H1262       H  0.45446162  0.63174887  0.33681466     0.08900
H1263       H  0.50704103  0.55556982  0.29772807     0.06900
Br1264     Br  0.47638934  0.53469672  0.35339280    -0.03700
C1265       C  0.51290224  0.61364373  0.08635144    -0.10300
C1266       C  0.53405576  0.59665917  0.08514204     0.05900
C1267       C  0.53334178  0.57562112  0.06124827    -0.04100
C1268       C  0.51071495  0.57003464  0.04243208    -0.08500
C1269       C  0.48819627  0.58521172  0.04708291     0.05000
C1270       C  0.48996177  0.60784475  0.06896338    -0.03500
Br1271     Br  0.46203495  0.63135574  0.07988284    -0.03200
H1272       H  0.51295009  0.62967015  0.10517510     0.08900
H1273       H  0.51069889  0.55349874  0.02453365     0.06900
Br1274     Br  0.56298575  0.55381907  0.05483912    -0.03700
C1275       C  0.59050036  0.49112519  0.11265883    -0.10300
C1276       C  0.56874531  0.48605098  0.09156980     0.05900
C1277       C  0.54555977  0.49933142  0.10035386    -0.04100
C1278       C  0.54447302  0.51599633  0.13002200    -0.08500
C1279       C  0.56621555  0.52069529  0.15102753     0.05000
C1280       C  0.58945085  0.50825159  0.14163401    -0.03500
Br1281     Br  0.62034206  0.51377347  0.16808233    -0.03200
H1282       H  0.60849183  0.48112580  0.10716397     0.08900
H1283       H  0.52676819  0.52651394  0.13550383     0.06900
Br1284     Br  0.51464720  0.49655298  0.07310047    -0.03700
C1285       C  0.88068969  0.60864900  0.13923746    -0.10300
C1286       C  0.85903374  0.62492175  0.14311165     0.05900
C1287       C  0.84798995  0.62724076  0.17730918    -0.04100
C1288       C  0.86013575  0.61606206  0.20708106    -0.08500
C1289       C  0.88368021  0.60268538  0.20367537     0.05000
C1290       C  0.89307856  0.59783030  0.16901325    -0.03500
Br1291     Br  0.92497036  0.57964411  0.16138012    -0.03200
H1292       H  0.88998419  0.60711901  0.11356159     0.08900
H1293       H  0.85278960  0.62062114  0.23328094     0.06900
Br1294     Br  0.81877313  0.64958851  0.18524420    -0.03700
C1295       C  0.01794989  0.61130384  0.20031736    -0.10300
C1296       C  0.00886035  0.58647357  0.21000432     0.05900
C1297       C  0.02295653  0.56416782  0.20023066    -0.04100
C1298       C  0.04353695  0.56681312  0.17658551    -0.08500
C1299       C  0.04977526  0.59147002  0.16239471     0.05000
C1300       C  0.03897389  0.61388089  0.17767082    -0.03500
Br1301     Br  0.04985522  0.64816410  0.16385518    -0.03200
H1302       H  0.00844806  0.62881215  0.20994278     0.08900
H1303       H  0.05209987  0.54933372  0.16528688     0.06900
Br1304     Br  0.01271711  0.52985324  0.21475491    -0.03700
C1305       C  0.95334626  0.57195218  0.42646561    -0.10300
C1306       C  0.94915839  0.59628025  0.40970599     0.05900
C1307       C  0.96269880  0.61801392  0.42196983    -0.04100
C1308       C  0.98307488  0.61456602  0.44559372    -0.08500
C1309       C  0.98915001  0.58974511  0.45940821     0.05000
C1310       C  0.97301993  0.56862003  0.45143232    -0.03500
Br1311     Br  0.97898079  0.53447852  0.97029889    -0.03200
H1312       H  0.94329668  0.55483020  0.41704265     0.08900
H1313       H  0.99436957  0.63139260  0.45301470     0.06900
Br1314     Br  0.95559012  0.65219780  0.40383468    -0.03700
C1315       C  0.85672677  0.38646826  0.03205768    -0.10300
C1316       C  0.88052212  0.39842248  0.03801622     0.05900
C1317       C  0.88945748  0.40018270  0.07321180    -0.04100
C1318       C  0.87598121  0.38804205  0.10102288    -0.08500
C1319       C  0.85384064  0.37326631  0.09435365     0.05000
C1320       C  0.84351812  0.37379843  0.05971336    -0.03500
Br1321     Br  0.81265480  0.35538281  0.04807785    -0.03200
H1322       H  0.84970175  0.38456368  0.00520105     0.08900
H1323       H  0.88446521  0.38775092  0.12719141     0.06900
Br1324     Br  0.92164262  0.41642878  0.08387057    -0.03700
C1325       C  0.01365500  0.39192991  0.03757397    -0.10300
C1326       C  0.00405531  0.41701952  0.02976252     0.05900
C1327       C  0.01461452  0.43889786  0.04626410    -0.04100
C1328       C  0.03187581  0.43514854  0.07413158    -0.08500
C1329       C  0.03869220  0.40975603  0.08509646     0.05000
C1330       C  0.03116039  0.38824734  0.06489451    -0.03500
Br1331     Br  0.04177139  0.35338885  0.07708146    -0.03200
H1332       H  0.00641405  0.37495280  0.02382636     0.08900
H1333       H  0.03761263  0.45183809  0.08972767     0.06900
Br1334     Br  0.00326351  0.47320370  0.53460234    -0.03700
C1335       C  0.94550003  0.43456153  0.31457543    -0.10300
C1336       C  0.93958537  0.41104859  0.33225719     0.05900
C1337       C  0.94930650  0.38743677  0.31908690    -0.04100
C1338       C  0.96798361  0.38803528  0.29276493    -0.08500
C1339       C  0.97756034  0.41191189  0.27945431     0.05000
C1340       C  0.96478567  0.43526606  0.28859515    -0.03500
Br1341     Br  0.97503213  0.46874069  0.27078408    -0.03200
H1342       H  0.93796991  0.45290071  0.32476020     0.08900
H1343       H  0.97651521  0.36958697  0.28484364     0.06900
Br1344     Br  0.94287077  0.35455372  0.34211016    -0.03700
C1345       C  0.88131794  0.32184992  0.42042685    -0.10300
C1346       C  0.90345418  0.32500326  0.44088333     0.05900
C1347       C  0.91465515  0.30278817  0.45727120    -0.04100
C1348       C  0.90449944  0.27808031  0.45113063    -0.08500
C1349       C  0.88268702  0.27482181  0.43005063     0.05000
C1350       C  0.87066985  0.29720524  0.41518109    -0.03500
Br1351     Br  0.84011505  0.29629433  0.38676940    -0.03200
H1352       H  0.87226129  0.33868050  0.40816343     0.08900
H1353       H  0.91344929  0.26129692  0.46367101     0.06900
Br1354     Br  0.94256353  0.30430338  0.49048811    -0.03700
C1355       C  0.95222002  0.49408421  0.38944804    -0.10300
C1356       C  0.92819997  0.48508748  0.40129180     0.05900
C1357       C  0.90611216  0.49457677  0.38352050    -0.04100
C1358       C  0.90846417  0.51260098  0.35534870    -0.08500
C1359       C  0.93260559  0.52130421  0.34313593     0.05000
C1360       C  0.95469955  0.51148003  0.36087090    -0.03500
Br1361     Br  0.98934258  0.52116912  0.34959823    -0.03200
H1362       H  0.96960128  0.48682153  0.40180390     0.08900
H1363       H  0.89113805  0.52023249  0.34323746     0.06900
Br1364     Br  0.87204005  0.48454643  0.39726393    -0.03700
C1365       C  0.02271981  0.33948050  0.42922704    -0.10300
C1366       C  0.02055733  0.36677130  0.43129578     0.05900
C1367       C  0.04291135  0.38176001  0.43524838    -0.04100
C1368       C  0.06676063  0.36946129  0.43806819    -0.08500
C1369       C  0.06924737  0.34211759  0.43636413     0.05000
C1370       C  0.04679383  0.32703715  0.43088847    -0.03500
Br1371     Br  0.04702800  0.28961145  0.42583771    -0.03200
H1372       H  0.00552805  0.32778390  0.42677881     0.08900
H1373       H  0.08354313  0.38161373  0.44140956     0.06900
Br1374     Br  0.04211660  0.41910376  0.43968798    -0.03700
C1375       C  0.05272309  0.67287970  0.32460405    -0.10300
C1376       C  0.07337433  0.66128149  0.30599906     0.05900
C1377       C  0.06841719  0.64006213  0.28313850    -0.04100
C1378       C  0.04382685  0.62951714  0.28194135    -0.08500
C1379       C  0.02361410  0.64051666  0.30153989     0.05000
C1380       C  0.02789000  0.66287710  0.32202004    -0.03500
Br1381     Br  0.00053746  0.68053160  0.34625971    -0.03200
H1382       H  0.05590722  0.68949070  0.34178955     0.08900
H1383       H  0.04045073  0.61256061  0.26552315     0.06900
Br1384     Br  0.09366155  0.62513797  0.25163878    -0.03700
C1385       C  0.15094075  0.62668150  0.43584038    -0.10300
C1386       C  0.14035554  0.62502457  0.40169257     0.05900
C1387       C  0.11951392  0.60793436  0.39657256    -0.04100
C1388       C  0.10759081  0.59581389  0.42562637    -0.08500
C1389       C  0.11634313  0.59979023  0.46030125     0.05000
C1390       C  0.13949809  0.61364068  0.46480555    -0.03500
Br1391     Br  0.15457300  0.61743038  0.01066707    -0.03200
H1392       H  0.16692738  0.63967120  0.44052621     0.08900
H1393       H  0.08976589  0.58543728  0.42146473     0.06900
Br1394     Br  0.10408065  0.60345383  0.35106505    -0.03700
C1395       C  0.08493929  0.80561507  0.30759965    -0.10300
C1396       C  0.10131627  0.82743416  0.30695187     0.05900
C1397       C  0.12816726  0.82308004  0.30985287    -0.04100
C1398       C  0.13787814  0.79753985  0.31117973    -0.08500
C1399       C  0.12144960  0.77598245  0.31174513     0.05000
C1400       C  0.09471772  0.78017169  0.31084700    -0.03500
Br1401     Br  0.07076780  0.75183668  0.31330169    -0.03200
H1402       H  0.06432958  0.80831356  0.30586516     0.08900
H1403       H  0.15845249  0.79450957  0.31327750     0.06900
Br1404     Br  0.15307040  0.85049946  0.31315900    -0.03700
C1405       C  0.36150551  0.61006236  0.08912340    -0.10300
C1406       C  0.34494122  0.63160013  0.08550144     0.05900
C1407       C  0.33570079  0.63776454  0.05135412    -0.04100
C1408       C  0.34594950  0.62515785  0.02127253    -0.08500
C1409       C  0.36557314  0.60640817  0.02469658     0.05000
C1410       C  0.37166185  0.59740018  0.05910734    -0.03500
Br1411     Br  0.39749542  0.57104376  0.06633999    -0.03200
H1412       H  0.36904893  0.60512649  0.11501426     0.08900
H1413       H  0.34108722  0.63255461  0.99522770     0.06900
Br1414     Br  0.31185140  0.66597823  0.04439761    -0.03700
C1415       C  0.42736476  0.63765153  0.16772055    -0.10300
C1416       C  0.42404163  0.66467867  0.17097773     0.05900
C1417       C  0.44559005  0.68041549  0.17775081    -0.04100
C1418       C  0.46998563  0.66885070  0.18073382    -0.08500
C1419       C  0.47338391  0.64159061  0.17765112     0.05000
C1420       C  0.45144311  0.62595841  0.17110131    -0.03500
Br1421     Br  0.45171895  0.58848122  0.16626172    -0.03200
H1422       H  0.41095616  0.62536723  0.16222600     0.08900
H1423       H  0.48621788  0.68122294  0.18667440     0.06900
Br1424     Br  0.44256442  0.71724505  0.18653473    -0.03700
C1425       C  0.26025852  0.65751309  0.23133857    -0.10300
C1426       C  0.26586946  0.68217961  0.21641662     0.05900
C1427       C  0.25340486  0.70434533  0.23115200    -0.04100
C1428       C  0.23733893  0.70170657  0.26070311    -0.08500
C1429       C  0.23153674  0.67721752  0.27546308     0.05000
C1430       C  0.24284876  0.65484751  0.25985246    -0.03500
Br1431     Br  0.23619059  0.62042742  0.27765238    -0.03200
H1432       H  0.26990446  0.64021045  0.22124002     0.08900
H1433       H  0.22844562  0.71920961  0.27132463     0.06900
Br1434     Br  0.25759856  0.73939098  0.21400228    -0.03700
C1435       C  0.36591509  0.80137168  0.18556099    -0.10300
C1436       C  0.37872263  0.78177608  0.16622852     0.05900
C1437       C  0.40185090  0.78831667  0.14822961    -0.04100
C1438       C  0.41239008  0.81330719  0.15230287    -0.08500
C1439       C  0.39985273  0.83233966  0.17276874     0.05000
C1440       C  0.37607259  0.82642210  0.18838555    -0.03500
Br1441     Br  0.35653943  0.85204488  0.21361954    -0.03200
H1442       H  0.34767285  0.79735552  0.19832851     0.08900
H1443       H  0.43092687  0.81759469  0.14053564     0.06900
Br1444     Br  0.42081271  0.76434717  0.11875106    -0.03700
C1445       C  0.07267167  0.86772952  0.07379935    -0.10300
C1446       C  0.07631224  0.84148420  0.06442218     0.05900
C1447       C  0.05471571  0.82633689  0.05555879    -0.04100
C1448       C  0.03032288  0.83804468  0.05417401    -0.08500
C1449       C  0.02667978  0.86464302  0.06256041     0.05000
C1450       C  0.04825650  0.87922792  0.07383930    -0.03500
Br1451     Br  0.04641555  0.91458114  0.09108563    -0.03200
H1452       H  0.08893104  0.87925486  0.08227845     0.08900
H1453       H  0.01421368  0.82629941  0.04577853     0.06900
Br1454     Br  0.05736292  0.78993146  0.04360250    -0.03700
C1455       C  0.13422912  0.89278553  0.14771139    -0.10300
C1456       C  0.15027792  0.87099883  0.15339794     0.05900
C1457       C  0.15724321  0.86488991  0.18852796    -0.04100
C1458       C  0.14692131  0.87924601  0.21705297    -0.08500
C1459       C  0.12855841  0.89908653  0.21167996     0.05000
C1460       C  0.12306396  0.90642796  0.17640335    -0.03500
Br1461     Br  0.09718060  0.93216207  0.16630760    -0.03200
H1462       H  0.12792450  0.89728695  0.12105917     0.08900
H1463       H  0.15073141  0.87258340  0.24367637     0.06900
Br1464     Br  0.17770510  0.83455194  0.19910048    -0.03700
C1465       C  0.14527911  0.74119350  0.17673648    -0.10300
C1466       C  0.16887059  0.74313327  0.15850724     0.05900
C1467       C  0.18705870  0.72277022  0.16219596    -0.04100
C1468       C  0.18291065  0.70324005  0.18761838    -0.08500
C1469       C  0.16029552  0.70298229  0.20816529     0.05000
C1470       C  0.14070995  0.72103499  0.20071213    -0.03500
Br1471     Br  0.10887924  0.72118258  0.22669424    -0.03200
H1472       H  0.13026329  0.75562754  0.17268907     0.08900
H1473       H  0.19831921  0.68959763  0.19358093     0.06900
Br1474     Br  0.21855585  0.72167324  0.13558825    -0.03700
C1475       C  0.14312643  0.76117294  0.42195688    -0.10300
C1476       C  0.16766915  0.75355443  0.40980268     0.05900
C1477       C  0.18875519  0.76979106  0.41682127    -0.04100
C1478       C  0.18547895  0.79132513  0.43923738    -0.08500
C1479       C  0.16154397  0.79654548  0.45543936     0.05000
C1480       C  0.13991757  0.78279922  0.44407382    -0.03500
Br1481     Br  0.10630022  0.79049357  0.46242713    -0.03200
H1482       H  0.12633397  0.75001173  0.41471054     0.08900
H1483       H  0.20238985  0.80171634  0.44804630     0.06900
Br1484     Br  0.22284584  0.76160577  0.40049247    -0.03700
C1485       C  0.12162440  0.67669202  0.05453230    -0.10300
C1486       C  0.09492858  0.67492871  0.05848298     0.05900
C1487       C  0.08063285  0.69759394  0.06716932    -0.04100
C1488       C  0.09307224  0.72165359  0.06954247    -0.08500
C1489       C  0.11960895  0.72352928  0.06344694     0.05000
C1490       C  0.13404202  0.70064279  0.05690239    -0.03500
Br1491     Br  0.17088942  0.70031851  0.05373693    -0.03200
H1492       H  0.13293682  0.65939220  0.04919651     0.08900
H1493       H  0.08201125  0.73894594  0.07638612     0.06900
Br1494     Br  0.04460659  0.69666919  0.07855725    -0.03700
C1495       C  0.45284250  0.83444002  0.43592551    -0.10300
C1496       C  0.43141088  0.85136317  0.43903884     0.05900
C1497       C  0.43587222  0.87844285  0.44349010    -0.04100
C1498       C  0.46096286  0.88796134  0.44245857    -0.08500
C1499       C  0.48207025  0.87106903  0.43912238     0.05000
C1500       C  0.47797234  0.84403091  0.43666148    -0.03500
Br1501     Br  0.50603402  0.81966292  0.43313586    -0.03200
H1502       H  0.45011899  0.81359718  0.43274303     0.08900
H1503       H  0.46409548  0.90875239  0.44558270     0.06900
Br1504     Br  0.40925494  0.90390487  0.45192903    -0.03700
C1505       C  0.38690216  0.89853122  0.35113651    -0.10300
C1506       C  0.36395532  0.88469248  0.34709328     0.05900
C1507       C  0.35161958  0.88546986  0.31398978    -0.04100
C1508       C  0.36443146  0.89611908  0.28435636    -0.08500
C1509       C  0.38981107  0.90507809  0.28739127     0.05000
C1510       C  0.39970932  0.90893894  0.32178902    -0.03500
Br1511     Br  0.43256367  0.92490385  0.32961992    -0.03200
H1512       H  0.39655245  0.89842790  0.37645835     0.08900
H1513       H  0.35568676  0.89479355  0.25856619     0.06900
Br1514     Br  0.31898440  0.86909331  0.30760791    -0.03700
C1515       C  0.32469441  0.73799463  0.32642088    -0.10300
C1516       C  0.34232564  0.75871536  0.32535433     0.05900
C1517       C  0.36285639  0.75733634  0.30039093    -0.04100
C1518       C  0.36473477  0.73614513  0.27713269    -0.08500
C1519       C  0.34632125  0.71639117  0.27717692     0.05000
C1520       C  0.32661888  0.71704912  0.30274735    -0.03500
Br1521     Br  0.30076962  0.69053766  0.30415471    -0.03200
H1522       H  0.30910139  0.73816037  0.34552576     0.08900
H1523       H  0.37926942  0.73645553  0.25644497     0.06900
Br1524     Br  0.38881435  0.78360346  0.29455366    -0.03700
C1525       C  0.31888136  0.80188204  0.05321268    -0.10300
C1526       C  0.34232365  0.80193322  0.03456158     0.05900
C1527       C  0.36070341  0.78263829  0.04180843    -0.04100
C1528       C  0.35393884  0.76124680  0.06240132    -0.08500
C1529       C  0.32959212  0.75967359  0.07863961     0.05000
C1530       C  0.31269358  0.78125461  0.07605257    -0.03500
Br1531     Br  0.28041396  0.78281328  0.10080500    -0.03200
H1532       H  0.30440696  0.81657670  0.04737985     0.08900
H1533       H  0.36801032  0.74579021  0.06564135     0.06900
Br1534     Br  0.39377657  0.78255539  0.01900510    -0.03700
C1535       C  0.26602786  0.80045066  0.97956363    -0.10300
C1536       C  0.27192822  0.82503907  0.46490103     0.05900
C1537       C  0.25918181  0.84716289  0.47887649    -0.04100
C1538       C  0.24107419  0.84453993  0.50657429    -0.08500
C1539       C  0.23542474  0.81990625  0.02191192     0.05000
C1540       C  0.24841846  0.79769857  0.00773639    -0.03500
Br1541     Br  0.24281142  0.76255491  0.02376898    -0.03200
H1542       H  0.27591746  0.78315095  0.96994793     0.08900
H1543       H  0.23096626  0.86186752  0.51567611     0.06900
Br1544     Br  0.26491991  0.88131202  0.45962145    -0.03700
C1545       C  0.41334262  0.72947633  0.43810745    -0.10300
C1546       C  0.38745282  0.73253631  0.42879860     0.05900
C1547       C  0.37227673  0.71032871  0.42319560    -0.04100
C1548       C  0.38291638  0.68557500  0.42707049    -0.08500
C1549       C  0.40859777  0.68207733  0.43742380     0.05000
C1550       C  0.42398182  0.70444869  0.44300608    -0.03500
Br1551     Br  0.45937639  0.70249985  0.45701305    -0.03200
H1552       H  0.42512665  0.74658258  0.44226219     0.08900
H1553       H  0.37057516  0.66890101  0.42281876     0.06900
Br1554     Br  0.33682844  0.71228200  0.40969067    -0.03700
C1555       C  0.55202146  0.81973148  0.16409496    -0.10300
C1556       C  0.57077450  0.82369927  0.19035603     0.05900
C1557       C  0.56306253  0.83386040  0.22355987    -0.04100
C1558       C  0.53763111  0.84161515  0.22886606    -0.08500
C1559       C  0.51966670  0.84021891  0.20144462     0.05000
C1560       C  0.52663524  0.82834066  0.16926094    -0.03500
Br1561     Br  0.50303243  0.82674542  0.13044632    -0.03200
H1562       H  0.55754872  0.81196935  0.13844584     0.08900
H1563       H  0.53239599  0.85110098  0.25358512     0.06900
Br1564     Br  0.58629600  0.83961481  0.26215549    -0.03700
C1565       C  0.68295968  0.76365353  0.28947011    -0.10300
C1566       C  0.66014384  0.77340491  0.27419926     0.05900
C1567       C  0.63652292  0.76308179  0.28505259    -0.04100
C1568       C  0.63596206  0.74429461  0.31169053    -0.08500
C1569       C  0.65869670  0.73492894  0.32780317     0.05000
C1570       C  0.68249824  0.74449864  0.31579346    -0.03500
Br1571     Br  0.71504332  0.73169199  0.33251481    -0.03200
H1572       H  0.70145546  0.77052459  0.28016201     0.08900
H1573       H  0.61731567  0.73716120  0.31991592     0.16500
Br1574     Br  0.60467718  0.77156625  0.26225101    -0.03700
C1575       C  0.68014254  0.71326846  0.05566984    -0.10300
C1576       C  0.65638615  0.71200242  0.03816008     0.05900
C1577       C  0.63920059  0.73302730  0.04231770    -0.04100
C1578       C  0.64688797  0.75572524  0.05987153    -0.08500
C1579       C  0.67116819  0.75754138  0.07626064     0.05000
C1580       C  0.68744725  0.73533725  0.07507442    -0.03500
Br1581     Br  0.72090939  0.73427118  0.09631449    -0.03200
H1582       H  0.69435587  0.69820059  0.05136335     0.08900
H1583       H  0.63345171  0.77193107  0.06091813     0.06900
Br1584     Br  0.60591624  0.73260607  0.02083986    -0.03700
C1585       C  0.65460886  0.88576980  0.07763604    -0.10300
C1586       C  0.63919222  0.88252740  0.10815179     0.05900
C1587       C  0.61477343  0.89451918  0.10865210    -0.04100
C1588       C  0.60473281  0.90565943  0.07769112    -0.08500
C1589       C  0.61869672  0.90554238  0.04563420     0.05000
C1590       C  0.64473840  0.89786202  0.04680930    -0.03500
Br1591     Br  0.66640330  0.90086985  0.50606382    -0.03200
H1592       H  0.67345426  0.87669024  0.07655420     0.08900
H1593       H  0.58471082  0.91152290  0.07762545     0.06900
Br1594     Br  0.59243712  0.89156108  0.14907993    -0.03700
C1595       C  0.61263891  0.71599567  0.13531487    -0.10300
C1596       C  0.63270185  0.72240281  0.15879656     0.05900
C1597       C  0.63974173  0.70401238  0.18515229    -0.04100
C1598       C  0.62558098  0.68105769  0.18899941    -0.08500
C1599       C  0.60446049  0.67595531  0.16727641     0.05000
C1600       C  0.59856060  0.69303207  0.13943083    -0.03500
Br1601     Br  0.57188544  0.68539171  0.10611198    -0.03200
H1602       H  0.60733393  0.72919520  0.11408967     0.08900
H1603       H  0.63045498  0.66754128  0.21007300     0.06900
Br1604     Br  0.66731050  0.70894360  0.21817065    -0.03700
C1605       C  0.95500301  0.83605753  0.30564090    -0.10300
C1606       C  0.93455872  0.85075230  0.29121131     0.05900
C1607       C  0.93930960  0.87610330  0.27807291    -0.04100
C1608       C  0.96346345  0.88701009  0.28256334    -0.08500
C1609       C  0.98328129  0.87267639  0.29838270     0.05000
C1610       C  0.97939308  0.84675832  0.30874539    -0.03500
Br1611     Br  0.00671333  0.82563741  0.32757317    -0.03200
H1612       H  0.95194891  0.81642483  0.31549485     0.08900
H1613       H  0.96710925  0.90648711  0.27243314     0.06900
Br1614     Br  0.91434770  0.89670868  0.25286281    -0.03700
C1615       C  0.85598590  0.87874294  0.42436180    -0.10300
C1616       C  0.87014453  0.88238205  0.39288674     0.05900
C1617       C  0.89261134  0.89764020  0.39457129    -0.04100
C1618       C  0.90197049  0.90638781  0.42729603    -0.08500
C1619       C  0.88925577  0.90043522  0.45913558     0.05000
C1620       C  0.86530558  0.88774962  0.45723891    -0.03500
Br1621     Br  0.84709645  0.87810920  0.99986512    -0.03200
H1622       H  0.83899662  0.86662266  0.42396568     0.08900
H1623       H  0.92058943  0.91574304  0.42815341     0.06900
Br1624     Br  0.91315599  0.90411486  0.35338498    -0.03700
C1625       C  0.81810697  0.79270020  0.19220553    -0.10300
C1626       C  0.84249884  0.79559982  0.20751458     0.05900
C1627       C  0.86127787  0.77646788  0.20101665    -0.04100
C1628       C  0.85468897  0.75360023  0.18320661    -0.08500
C1629       C  0.82972708  0.74987724  0.16962709     0.05000
C1630       C  0.81156336  0.77021229  0.17347705    -0.03500
Br1631     Br  0.77656754  0.76738973  0.15809170    -0.03200
H1632       H  0.80294553  0.80642343  0.19855918     0.08900
H1633       H  0.86936214  0.73869909  0.18011115     0.06900
Br1634     Br  0.89520290  0.77931871  0.22026742    -0.03700
C1635       C  0.86108921  0.73371879  0.45383542    -0.10300
C1636       C  0.83772924  0.73086125  0.47147353     0.05900
C1637       C  0.81623285  0.74637534  0.46061087    -0.04100
C1638       C  0.81891889  0.76447888  0.43332903    -0.08500
C1639       C  0.84254142  0.76800798  0.41671552     0.05000
C1640       C  0.86378625  0.75206302  0.42683503    -0.03500
Br1641     Br  0.89704773  0.75276361  0.40457705    -0.03200
H1642       H  0.87762303  0.72219758  0.46180787     0.08900
H1643       H  0.80244914  0.77604507  0.42518496     0.06900
Br1644     Br  0.78213728  0.74487117  0.98088409    -0.03700
C1645       C  0.75054638  0.83382797  0.28540520    -0.10300
C1646       C  0.77467838  0.83969227  0.27119833     0.05900
C1647       C  0.77581850  0.84586243  0.23422227    -0.04100
C1648       C  0.75438575  0.84175595  0.21213361    -0.08500
C1649       C  0.73042589  0.83505387  0.22630397     0.05000
C1650       C  0.72846961  0.83326176  0.26396769    -0.03500
Br1651     Br  0.69646102  0.83117839  0.28905061    -0.03200
H1652       H  0.74869332  0.83036003  0.31361912     0.08900
H1653       H  0.75624283  0.84479402  0.18383059     0.06900
Br1654     Br  0.80537394  0.86089625  0.21133705    -0.03700
C1655       C  0.90608049  0.72901241  0.28948642    -0.10300
C1656       C  0.88254047  0.73160837  0.30722474     0.05900
C1657       C  0.87038793  0.70906545  0.32037425    -0.04100
C1658       C  0.88196764  0.68448380  0.31572991    -0.08500
C1659       C  0.90559582  0.68169272  0.29771941     0.05000
C1660       C  0.91738271  0.70451145  0.28382069    -0.03500
Br1661     Br  0.94828542  0.70451419  0.25559876    -0.03200
H1662       H  0.91571838  0.74626852  0.27963254     0.08900
H1663       H  0.87246570  0.66749097  0.32663314     0.06900
Br1664     Br  0.83904224  0.71091312  0.34728241    -0.03700
O1665       O  0.86499226  0.79780971  0.88201230    -0.82900
C1666       C  0.84302456  0.80855138  0.74188903     0.96400
O1667       O  0.82868091  0.79727071  0.76430469    -0.72100
O1668       O  0.84929205  0.76375818  0.80763397    -0.75600
Al1669     Al  0.82852399  0.79429895  0.81381412     1.49000
C1670       C  0.87246817  0.75838424  0.81360540     0.91700
O1671       O  0.90529918  0.81794417  0.80569441    -0.81900
O1672       O  0.85054053  0.86651345  0.83845475    -0.75400
Al1673     Al  0.88243565  0.80962261  0.84230585     1.90100
O1674       O  0.88926105  0.85551400  0.79350750    -0.74500
O1675       O  0.81810677  0.84950915  0.78436486    -0.74300
O1676       O  0.85723119  0.82807355  0.74978427    -0.80000
O1677       O  0.80105562  0.82000690  0.81752216    -0.78200
O1678       O  0.85449869  0.81678972  0.81742158    -1.14300
O1679       O  0.82636425  0.78708328  0.86340691    -0.73500
C1680       C  0.84420827  0.78595702  0.88616950     0.97200
C1681       C  0.90841509  0.84080095  0.79556100     0.93600
Al1682     Al  0.85367020  0.84721327  0.79390483     1.55600
O1683       O  0.88723277  0.77531923  0.82586060    -0.78200
C1684       C  0.79859405  0.83717153  0.79353921     0.97700
C1685       C  0.86697883  0.86348005  0.86345202     0.92600
O1686       O  0.88217752  0.84384307  0.86402384    -0.83500
O1687       O  0.66152994  0.80026790  0.59799832    -0.82900
C1688       C  0.66245869  0.78993981  0.74267343     0.96400
O1689       O  0.68139796  0.78515019  0.72287550    -0.72100
O1690       O  0.66373318  0.75499271  0.67399485    -0.75600
Al1691     Al  0.68431373  0.78566575  0.67345747     1.49000
C1692       C  0.64402813  0.74891960  0.65661709     0.91700
O1693       O  0.60482722  0.80285830  0.65955597    -0.81900
O1694       O  0.65491916  0.85979873  0.66072433    -0.75400
Al1695     Al  0.63502776  0.80227582  0.63152895     1.90100
O1696       O  0.61475619  0.83519664  0.69376763    -0.74500
O1697       O  0.68609716  0.83799318  0.71209166    -0.74300
O1698       O  0.64641858  0.80796398  0.73512503    -0.80000
O1699       O  0.70928169  0.81380018  0.67650281    -0.78200
O1700       O  0.65696858  0.80710805  0.66708888    -1.14300
O1701       O  0.69207586  0.77952878  0.62422007    -0.73500
C1702       C  0.67657136  0.78105376  0.59875394     0.97200
C1703       C  0.59821219  0.82003239  0.68139189     0.93600
Al1704     Al  0.65120284  0.83314204  0.69758697     1.55600
O1705       O  0.63306996  0.76558427  0.63721831    -0.78200
C1706       C  0.70784323  0.82957198  0.70259278     0.97700
C1707       C  0.64312525  0.85915845  0.63108819     0.92600
O1708       O  0.63281634  0.83836828  0.62009704    -0.83500
O1709       O  0.37530217  0.84362305  0.86897090    -0.82900
C1710       C  0.34167886  0.81073169  0.49807721     0.96400
O1711       O  0.35492569  0.82949913  0.98642780    -0.72100
O1712       O  0.38519625  0.85401534  0.93948155    -0.75600
Al1713     Al  0.34908573  0.84516991  0.94105689     1.49000
C1714       C  0.40521694  0.84054596  0.93368524     0.91700
O1715       O  0.38462189  0.77348882  0.90046841    -0.81900
O1716       O  0.32991157  0.77343372  0.88278008    -0.75400
Al1717     Al  0.37731293  0.80908890  0.88808709     1.90100
O1718       O  0.35683538  0.76491874  0.94260482    -0.74500
O1719       O  0.30074755  0.80892443  0.91951351    -0.74300
O1720       O  0.32812434  0.79678022  0.97799670    -0.80000
O1721       O  0.31226174  0.84331250  0.94960199    -0.78200
O1722       O  0.35216406  0.81416759  0.91930522    -1.14300
O1723       O  0.34348142  0.86368176  0.89703643    -0.73500
C1724       C  0.35988148  0.86274684  0.87198054     0.97200
C1725       C  0.37617374  0.75862667  0.92439707     0.93600
Al1726     Al  0.33051161  0.78840095  0.92956035     1.55600
O1727       O  0.40317899  0.81813816  0.92046496    -0.78200
C1728       C  0.29509627  0.82705252  0.94112452     0.97700
C1729       C  0.34144045  0.77863042  0.85406962     0.92600
O1730       O  0.35481024  0.79891574  0.85178407    -0.83500
O1731       O  0.13719375  0.83115304  0.62961801    -0.82900
C1732       C  0.16283061  0.80333093  0.99279639     0.96400
O1733       O  0.14958091  0.82151182  0.50725556    -0.72100
O1734       O  0.12168047  0.84396965  0.55937047    -0.75600
Al1735     Al  0.15764526  0.83558014  0.55332279     1.49000
C1736       C  0.10236368  0.83035021  0.56761234     0.91700
O1737       O  0.12590745  0.76299386  0.59401496    -0.81900
O1738       O  0.18127083  0.76079350  0.60297750    -0.75400
Al1739     Al  0.13400265  0.79769477  0.60800136     1.90100
O1740       O  0.14993795  0.75565312  0.54721769    -0.74500
O1741       O  0.20814637  0.79809482  0.56541346    -0.74300
O1742       O  0.17683132  0.78851195  0.51089269    -0.80000
O1743       O  0.19388266  0.83416275  0.54112054    -0.78200
O1744       O  0.15645606  0.80388546  0.57338944    -1.14300
O1745       O  0.16536727  0.85303309  0.59770976    -0.73500
C1746       C  0.15165458  0.85066646  0.62553128     0.97200
C1747       C  0.13221936  0.74888851  0.56804916     0.93600
Al1748     Al  0.17739809  0.77828277  0.55826346     1.55600
O1749       O  0.10533828  0.80812371  0.58106158    -0.78200
C1750       C  0.21204394  0.81788338  0.54580349     0.97700
C1751       C  0.17161044  0.76499575  0.63313766     0.92600
O1752       O  0.15969407  0.78602276  0.63906993    -0.83500
O1753       O  0.33653102  0.71608087  0.59673593    -0.82900
C1754       C  0.34088969  0.70502945  0.74261297     0.96400
O1755       O  0.32351851  0.71661172  0.72575526    -0.72100
O1756       O  0.34926002  0.74934118  0.68580404    -0.75600
Al1757     Al  0.32186846  0.72555933  0.67760310     1.49000
C1758       C  0.36643008  0.75578986  0.66365372     0.91700
O1759       O  0.39418138  0.69641738  0.65065851    -0.81900
O1760       O  0.33446277  0.65002796  0.64293187    -0.75400
Al1761     Al  0.36388986  0.70571276  0.62598396     1.90100
O1762       O  0.37912738  0.66178381  0.67710648    -0.74500
O1763       O  0.30815005  0.67026251  0.69951688    -0.74300
O1764       O  0.35380878  0.68655235  0.72869604    -0.80000
O1765       O  0.29188280  0.70430239  0.67223678    -0.78200
O1766       O  0.34314148  0.70021547  0.66259843    -1.14300
O1767       O  0.31619132  0.74197351  0.63295701    -0.73500
C1768       C  0.32531561  0.73746090  0.60270438     0.97200
C1769       C  0.39788361  0.67522239  0.66662814     0.93600
Al1770     Al  0.34372195  0.66954205  0.68509286     1.55600
O1771       O  0.37193589  0.74094698  0.63806961    -0.78200
C1772       C  0.28908717  0.68496780  0.69299297     0.97700
C1773       C  0.34587710  0.65217990  0.61318313     0.92600
O1774       O  0.35986178  0.67169184  0.60645853    -0.83500
O1775       O  0.15531416  0.71146935  0.89106853    -0.82900
C1776       C  0.16240810  0.69445277  0.74488941     0.96400
O1777       O  0.17754269  0.70765850  0.76341362    -0.72100
O1778       O  0.15164048  0.74265719  0.79891604    -0.75600
Al1779     Al  0.17702793  0.71750340  0.81146550     1.49000
C1780       C  0.13280994  0.74998420  0.81768628     0.91700
O1781       O  0.10299443  0.69205359  0.82834987    -0.81900
O1782       O  0.16001045  0.64341280  0.84890607    -0.75400
Al1783     Al  0.13075311  0.70084844  0.85763349     1.90100
O1784       O  0.11867722  0.65559017  0.80749269    -0.74500
O1785       O  0.19131801  0.66063738  0.79404217    -0.74300
O1786       O  0.14859385  0.67670121  0.75836841    -0.80000
O1787       O  0.20534985  0.69509002  0.82170705    -0.78200
O1788       O  0.15421713  0.69339322  0.82473439    -1.14300
O1789       O  0.18039834  0.73408434  0.85622880    -0.73500
C1790       C  0.16938852  0.73101216  0.88563532     0.97200
C1791       C  0.09973825  0.67038366  0.81355665     0.93600
Al1792     Al  0.15475095  0.66167270  0.80431199     1.55600
O1793       O  0.12468308  0.73602682  0.84281970    -0.78200
C1794       C  0.20945868  0.67617789  0.80076509     0.97700
C1795       C  0.14509838  0.64624598  0.87551233     0.92600
O1796       O  0.13177811  0.66687645  0.87921264    -0.83500
O1797       O  0.91812668  0.38438306  0.50796488    -0.82900
C1798       C  0.93576890  0.41338027  0.87042906     0.96400
O1799       O  0.91859084  0.40074953  0.88693936    -0.72100
O1800       O  0.89985870  0.37178488  0.94032140    -0.75600
Al1801     Al  0.90854772  0.40836850  0.93466783     1.49000
C1802       C  0.91379767  0.35169580  0.94494281     0.91700
O1803       O  0.98196031  0.37278908  0.96344602    -0.81900
O1804       O  0.98514237  0.42877311  0.97537763    -0.75400
Al1805     Al  0.94893712  0.38141706  0.98187618     1.90100
O1806       O  0.98727472  0.39815392  0.91727909    -0.74500
O1807       O  0.94698486  0.45707943  0.94481994    -0.74300
O1808       O  0.95223955  0.42682219  0.88643045    -0.80000
O1809       O  0.90999800  0.44550268  0.92328171    -0.78200
O1810       O  0.94111381  0.40541543  0.94981113    -1.14300
O1811       O  0.89514857  0.41583295  0.98168357    -0.73500
C1812       C  0.89882168  0.40053425  0.00781908     0.97200
C1813       C  0.99478244  0.37958082  0.93670926     0.93600
Al1814     Al  0.96559816  0.42623368  0.93259548     1.55600
O1815       O  0.93675151  0.35414872  0.95397690    -0.78200
C1816       C  0.92725711  0.46265996  0.92673745     0.97700
C1817       C  0.98281887  0.41833385  0.50538971     0.92600
O1818       O  0.96313199  0.40541843  0.51302927    -0.83500
O1819       O  0.92079671  0.61814126  0.73109614    -0.82900
C1820       C  0.94376154  0.59556087  0.87164284     0.96400
O1821       O  0.92572190  0.60785480  0.85611694    -0.72100
O1822       O  0.90462788  0.63531779  0.80203717    -0.75600
Al1823     Al  0.91393458  0.59900588  0.80861223     1.49000
C1824       C  0.91723955  0.65534631  0.79312551     0.91700
O1825       O  0.98521900  0.63389234  0.77114985    -0.81900
O1826       O  0.98996182  0.57725776  0.76488453    -0.75400
Al1827     Al  0.95222679  0.62364428  0.75509691     1.90100
O1828       O  0.99182773  0.61098040  0.81938676    -0.74500
O1829       O  0.95365745  0.54947744  0.80028802    -0.74300
O1830       O  0.95982662  0.58236388  0.85444751    -0.80000
O1831       O  0.91635357  0.56220669  0.82117396    -0.78200
O1832       O  0.94574824  0.60132183  0.79030721    -1.14300
O1833       O  0.89838868  0.59026248  0.76291158    -0.73500
C1834       C  0.90186394  0.60306323  0.73429267     0.97200
C1835       C  0.99840475  0.62868918  0.79810128     0.93600
Al1836     Al  0.97128212  0.58166960  0.80784667     1.55600
O1837       O  0.93923152  0.65269693  0.77988847    -0.78200
C1838       C  0.93369299  0.54474483  0.81852507     0.97700
C1839       C  0.98672706  0.58550116  0.73387093     0.92600
O1840       O  0.96663627  0.59778592  0.72557766    -0.83500
O1841       O  0.57771409  0.62713247  0.74723469    -0.82900
C1842       C  0.54635359  0.59280828  0.61985052     0.96400
O1843       O  0.56794105  0.60290654  0.62913946    -0.72100
O1844       O  0.59855423  0.63092134  0.67514969    -0.75600
Al1845     Al  0.58360143  0.59752159  0.67586963     1.49000
C1846       C  0.58868657  0.65306826  0.67548234     0.91700
O1847       O  0.51807368  0.64405005  0.69206132    -0.81900
O1848       O  0.52081931  0.57880416  0.74001966    -0.75400
Al1849     Al  0.54802220  0.63403470  0.71775848     1.90100
O1850       O  0.50144468  0.60548683  0.68516356    -0.74500
O1851       O  0.54781872  0.54929041  0.69519788    -0.74300
O1852       O  0.53185861  0.58074905  0.64141160    -0.80000
O1853       O  0.58154831  0.56156102  0.66688449    -0.78200
O1854       O  0.55300718  0.60391512  0.69527040    -1.14300
O1855       O  0.59845658  0.59282029  0.72323061    -0.73500
C1856       C  0.59491078  0.60917469  0.74885941     0.97200
C1857       C  0.49912917  0.62988349  0.68457077     0.93600
Al1858     Al  0.52791518  0.58060520  0.69093246     1.55600
O1859       O  0.56590822  0.65580363  0.68520056    -0.78200
C1860       C  0.56590037  0.54410716  0.67421855     0.97700
C1861       C  0.51700836  0.59827894  0.76000454     0.92600
O1862       O  0.52738505  0.61990623  0.75382791    -0.83500
O1863       O  0.58238768  0.37809252  0.00009547    -0.82900
C1864       C  0.55169134  0.41958937  0.62694635     0.96400
O1865       O  0.57152307  0.40585930  0.61824786    -0.72100
O1866       O  0.59982982  0.37249402  0.57331777    -0.75600
Al1867     Al  0.58711807  0.40799669  0.57128647     1.49000
C1868       C  0.58881220  0.35097720  0.56968281     0.91700
O1869       O  0.51942935  0.36464395  0.54925811    -0.81900
O1870       O  0.52139439  0.42707385  0.50787116    -0.75400
Al1871     Al  0.55117870  0.37319641  0.52718655     1.90100
O1872       O  0.50493063  0.40286110  0.56617675    -0.74500
O1873       O  0.55242418  0.45645248  0.54658159    -0.74300
O1874       O  0.53687964  0.42941383  0.60406908    -0.80000
O1875       O  0.58546005  0.44466950  0.57680250    -0.78200
O1876       O  0.55626020  0.40271916  0.55102990    -1.14300
O1877       O  0.60331139  0.41117846  0.52536496    -0.73500
C1878       C  0.60016628  0.39518277  0.99958823     0.97200
C1879       C  0.50174102  0.37874475  0.56192057     0.93600
Al1880     Al  0.53135793  0.42675829  0.55564500     1.55600
O1881       O  0.56576355  0.35095725  0.56109925    -0.78200
C1882       C  0.56972225  0.46214282  0.56837606     0.97700
C1883       C  0.52014097  0.40865168  0.98594636     0.92600
O1884       O  0.53329627  0.38827781  0.98956102    -0.83500
O1885       O  0.86830753  0.21487768  0.86471189    -0.82900
C1886       C  0.82684898  0.21313607  0.49471137     0.96400
O1887       O  0.82415611  0.22388600  0.96498365    -0.72100
O1888       O  0.84969224  0.24474021  0.91554225    -0.75600
Al1889     Al  0.82708816  0.21506904  0.91919315     1.49000
C1890       C  0.87298469  0.24805154  0.92405931     0.91700
O1891       O  0.90474016  0.17977788  0.93283119    -0.81900
O1892       O  0.86133778  0.14042561  0.92084500    -0.75400
Al1893     Al  0.88173867  0.19661311  0.90284983     1.90100
O1894       O  0.88250343  0.17051298  0.97943845    -0.74500
O1895       O  0.81597643  0.15670579  0.94624226    -0.74300
O1896       O  0.83612325  0.18983743  0.99638207    -0.80000
O1897       O  0.79851986  0.19202793  0.92545478    -0.78200
O1898       O  0.85249121  0.19245364  0.92724782    -1.14300
O1899       O  0.82734588  0.20871576  0.86997641    -0.73500
C1900       C  0.84611179  0.21845676  0.85352308     0.97200
C1901       C  0.90382603  0.17298896  0.96444516     0.93600
Al1902     Al  0.84951149  0.16642371  0.95806043     1.55600
O1903       O  0.88826776  0.22864824  0.92666174    -0.78200
C1904       C  0.79699886  0.17176053  0.94431760     0.97700
C1905       C  0.86854303  0.14403413  0.88835960     0.92600
O1906       O  0.87611082  0.16607484  0.87778234    -0.83500
O1907       O  0.64818813  0.20932520  0.63865041    -0.82900
C1908       C  0.66909624  0.20070769  0.99730685     0.96400
O1909       O  0.68296166  0.21184231  0.51962602    -0.72100
O1910       O  0.66251644  0.24528657  0.56362792    -0.75600
Al1911     Al  0.68339300  0.21466260  0.56894904     1.49000
C1912       C  0.63949111  0.25033598  0.57124145     0.91700
O1913       O  0.60636014  0.19082433  0.56351040    -0.81900
O1914       O  0.66164108  0.14180094  0.59257059    -0.75400
Al1915     Al  0.63004101  0.19844094  0.59917706     1.90100
O1916       O  0.62204323  0.15359782  0.54882051    -0.74500
O1917       O  0.69348364  0.15932818  0.53896808    -0.74300
O1918       O  0.65479569  0.18085972  0.50532206    -0.80000
O1919       O  0.71098873  0.18890237  0.57174760    -0.78200
O1920       O  0.65753462  0.19183383  0.57295963    -1.14300
O1921       O  0.68569996  0.22220201  0.61847277    -0.73500
C1922       C  0.66727940  0.22402273  0.64053042     0.97200
C1923       C  0.60286208  0.16833555  0.55244014     0.93600
Al1924     Al  0.65807965  0.16158888  0.54887484     1.55600
O1925       O  0.62514683  0.23308286  0.58385764    -0.78200
C1926       C  0.71307487  0.17161085  0.54781698     0.97700
C1927       C  0.64595141  0.14460378  0.61852797     0.92600
O1928       O  0.63050379  0.16398284  0.62004957    -0.83500
O1929       O  0.07742361  0.09506868  0.52751158    -0.82900
C1930       C  0.04021917  0.10929457  0.89081276     0.96400
O1931       O  0.06342795  0.10255609  0.89608114    -0.72100
O1932       O  0.08373141  0.13583221  0.94170725    -0.75600
Al1933     Al  0.08101548  0.09915095  0.94176096     1.49000
C1934       C  0.08335008  0.15114949  0.96784802     0.91700
O1935       O  0.02376226  0.13955788  0.99578465    -0.81900
O1936       O  0.02063884  0.06149297  0.98735405    -0.75400
Al1937     Al  0.05091389  0.11602649  0.00930426     1.90100
O1938       O  0.99959728  0.10888253  0.97406842    -0.74500
O1939       O  0.04057714  0.05981664  0.92225617    -0.74300
O1940       O  0.02465594  0.11055567  0.91601066    -0.80000
O1941       O  0.08117167  0.06138458  0.93658772    -0.78200
O1942       O  0.05227198  0.09993987  0.96791357    -1.14300
O1943       O  0.10417644  0.09690720  0.98284072    -0.73500
C1944       C  0.10010046  0.09513705  0.01610926     0.97200
C1945       C  0.00190932  0.13141611  0.98704009     0.93600
Al1946     Al  0.02384966  0.08615462  0.95099535     1.55600
O1947       O  0.07413499  0.14393931  0.99728481    -0.78200
C1948       C  0.06313025  0.05057216  0.91940962     0.97700
C1949       C  0.01732522  0.07077788  0.51739432     0.92600
O1950       O  0.02722867  0.09214809  0.52769857    -0.83500
O1951       O  0.08945000  0.88732229  0.73668106    -0.82900
C1952       C  0.05770826  0.91513112  0.86959567     0.96400
O1953       O  0.07669986  0.90244639  0.85686822    -0.72100
O1954       O  0.10230571  0.87441714  0.80796853    -0.75600
Al1955     Al  0.09263793  0.91066747  0.81157661     1.49000
C1956       C  0.08986599  0.85399972  0.80124428     0.91700
O1957       O  0.02337990  0.87569078  0.77302609    -0.81900
O1958       O  0.02059145  0.93259860  0.75813955    -0.75400
Al1959     Al  0.05678862  0.88376236  0.75814754     1.90100
O1960       O  0.01402781  0.90348367  0.81573026    -0.74500
O1961       O  0.05682371  0.96062206  0.79269108    -0.74300
O1962       O  0.04612960  0.93205566  0.85146985    -0.80000
O1963       O  0.09041725  0.94812655  0.82242534    -0.78200
O1964       O  0.06206318  0.90837826  0.79043521    -1.14300
O1965       O  0.11065655  0.91738496  0.76673375    -0.73500
C1966       C  0.10847971  0.90231499  0.73981861     0.97200
C1967       C  0.00864772  0.88394037  0.79698767     0.93600
Al1968     Al  0.03681741  0.93047213  0.80312734     1.55600
O1969       O  0.06791979  0.85596182  0.78771064    -0.78200
C1970       C  0.07449018  0.96606522  0.81433547     0.97700
C1971       C  0.02429657  0.92131806  0.72895048     0.92600
O1972       O  0.04416570  0.90755157  0.72404495    -0.83500
O1973       O  0.15227390  0.29018663  0.86506226    -0.82900
C1974       C  0.15844486  0.30735786  0.50846219     0.96400
O1975       O  0.17458353  0.29520116  0.99123508    -0.72100
O1976       O  0.14795727  0.25950349  0.95902492    -0.75600
Al1977     Al  0.17333580  0.28349044  0.94374385     1.49000
C1978       C  0.12968562  0.25122259  0.94049446     0.91700
O1979       O  0.09912059  0.30818498  0.92753180    -0.81900
O1980       O  0.15598001  0.35645201  0.90273497    -0.75400
Al1981     Al  0.12706935  0.29928255  0.89803260     1.90100
O1982       O  0.11415697  0.34589911  0.94408069    -0.74500
O1983       O  0.18765424  0.33988574  0.95907675    -0.74300
O1984       O  0.14390423  0.32502407  0.99505259    -0.80000
O1985       O  0.20165597  0.30516104  0.93146155    -0.78200
O1986       O  0.15035327  0.30743755  0.93000316    -1.14300
O1987       O  0.17594805  0.26544768  0.89886499    -0.73500
C1988       C  0.16587908  0.27015530  0.86913513     0.97200
C1989       C  0.09520304  0.33135336  0.93717991     0.93600
Al1990     Al  0.15061080  0.33944638  0.94869604     1.55600
O1991       O  0.12208337  0.26375259  0.91362553    -0.78200
C1992       C  0.20600753  0.32408153  0.95217191     0.97700
C1993       C  0.14051729  0.35282293  0.87695584     0.92600
O1994       O  0.12688016  0.33253299  0.87558551    -0.83500
O1995       O  0.34581781  0.28962690  0.64706117    -0.82900
C1996       C  0.34039741  0.30176760  0.00131420     0.96400
O1997       O  0.32373865  0.29040966  0.51953976    -0.72100
O1998       O  0.35099547  0.25742764  0.55710075    -0.75600
Al1999     Al  0.32417140  0.28135507  0.56814984     1.49000
C2000       C  0.37054543  0.25219909  0.57543981     0.91700
O2001       O  0.39699570  0.31270259  0.58460682    -0.81900
O2002       O  0.33545475  0.35624866  0.60189769    -0.75400
Al2003     Al  0.36935819  0.30187026  0.61329364     1.90100
O2004       O  0.37939157  0.34785161  0.56372108    -0.74500
O2005       O  0.30795369  0.33623127  0.54656398    -0.74300
O2006       O  0.35303062  0.32115870  0.51386549    -0.80000
O2007       O  0.29395711  0.30239733  0.57628294    -0.78200
O2008       O  0.34569642  0.30697443  0.58037624    -1.14300
O2009       O  0.32161242  0.26520601  0.61417281    -0.73500
C2010       C  0.33367760  0.26880774  0.64272950     0.97200
C2011       C  0.39931135  0.33521632  0.57199874     0.93600
Al2012     Al  0.34394219  0.33792247  0.55835458     1.55600
O2013       O  0.37829806  0.26743628  0.59918584    -0.78200
C2014       C  0.28967966  0.32136548  0.55527995     0.97700
C2015       C  0.34869530  0.35398151  0.63008757     0.92600
O2016       O  0.36452860  0.33535054  0.63410111    -0.83500
O2017       O  0.03157272  0.59893159  0.97772372    -0.82900
C2018       C  0.05319271  0.59188061  0.62421166     0.96400
O2019       O  0.03510229  0.58194119  0.60708361    -0.72100
O2020       O  0.00567287  0.61349854  0.57205425    -0.75600
Al2021     Al  0.02393870  0.58228939  0.56028504     1.49000
C2022       C  0.00055025  0.63205850  0.55129477     0.91700
O2023       O  0.06081093  0.64971603  0.53691237    -0.81900
O2024       O  0.09789637  0.58423689  0.51585509    -0.75400
Al2025     Al  0.04690681  0.62289179  0.50930326     1.90100
O2026       O  0.09449132  0.62858833  0.55682626    -0.74500
O2027       O  0.07734310  0.55652235  0.57295385    -0.74300
O2028       O  0.07227672  0.60203751  0.60882097    -0.80000
O2029       O  0.03885168  0.54834991  0.55297452    -0.78200
O2030       O  0.05123166  0.59917804  0.54346370    -1.14300
O2031       O  0.00584625  0.58000930  0.51608768    -0.73500
C2032       C  0.01049091  0.58804048  0.98495658     0.97200
C2033       C  0.08255828  0.64976999  0.55114743     0.93600
Al2034     Al  0.08276885  0.59322076  0.56152380     1.55600
O2035       O  0.01409088  0.63558186  0.52405571    -0.78200
C2036       C  0.05824647  0.54129475  0.57098785     0.97700
C2037       C  0.09674013  0.59936673  0.48914016     0.92600
O2038       O  0.07890464  0.61596153  0.98642129    -0.83500
O2039       O  0.01434988  0.38987265  0.76037837    -0.82900
C2040       C  0.04269548  0.40601848  0.62308220     0.96400
O2041       O  0.02278664  0.40231848  0.64136919    -0.72100
O2042       O  0.99377972  0.38545175  0.69191947    -0.75600
Al2043     Al  0.01650269  0.41389015  0.68735228     1.49000
C2044       C  0.99639834  0.36143834  0.69757787     0.91700
O2045       O  0.06749929  0.35088761  0.71992940    -0.81900
O2046       O  0.09407271  0.40349092  0.73066666    -0.75400
Al2047     Al  0.04147765  0.37329641  0.73672078     1.90100
O2048       O  0.08493033  0.37071686  0.67455494    -0.74500
O2049       O  0.07244918  0.44364955  0.69016670    -0.74300
O2050       O  0.06447067  0.40919240  0.63702886    -0.80000
O2051       O  0.03193574  0.44611209  0.67630561    -0.78200
O2052       O  0.04488829  0.39794452  0.70330521    -1.14300
O2053       O  0.00614523  0.42668564  0.73287520    -0.73500
C2054       C  0.00121152  0.41047054  0.75730095     0.97200
C2055       C  0.08212108  0.35068246  0.69345268     0.93600
Al2056     Al  0.07613302  0.40600554  0.68517347     1.55600
O2057       O  0.01727307  0.35255826  0.70994347    -0.78200
C2058       C  0.05396501  0.45606538  0.67589842     0.97700
C2059       C  0.08731776  0.39717696  0.76198418     0.92600
O2060       O  0.06455702  0.39006408  0.76830685    -0.83500
O2061       O  0.97235587  0.89008975  0.98547655    -0.82900
C2062       C  0.95152979  0.91367434  0.62180323     0.96400
O2063       O  0.96705196  0.92521657  0.60112824    -0.72100
O2064       O  0.99874137  0.90145365  0.55812707    -0.75600
Al2065     Al  0.97237207  0.92653901  0.55188641     1.49000
C2066       C  0.00115950  0.87711617  0.55563465     0.91700
O2067       O  0.93528008  0.85166299  0.55228707    -0.81900
O2068       O  0.90133226  0.91507687  0.51813961    -0.75400
Al2069     Al  0.95235250  0.87442645  0.52083548     1.90100
O2070       O  0.90192279  0.87493436  0.56420754    -0.74500
O2071       O  0.91810905  0.94556983  0.57583561    -0.74300
O2072       O  0.93060474  0.90317779  0.61124273    -0.80000
O2073       O  0.95196116  0.95782552  0.54811865    -0.78200
O2074       O  0.94716882  0.90356065  0.54546238    -1.14300
O2075       O  0.98168904  0.92963530  0.50278348    -0.73500
C2076       C  0.98409934  0.91118131  0.98089287     0.97200
C2077       C  0.91254658  0.85303575  0.56272395     0.93600
Al2078     Al  0.91605486  0.90926381  0.56488918     1.55600
O2079       O  0.98262739  0.86360296  0.54489064    -0.78200
C2080       C  0.93463997  0.96277221  0.57061977     0.97700
C2081       C  0.90496804  0.89937887  0.49196953     0.92600
O2082       O  0.92241645  0.88176162  0.99267423    -0.83500
O2083       O  0.96874038  0.11759132  0.76611069    -0.82900
C2084       C  0.96108881  0.08796028  0.63313903     0.96400
O2085       O  0.97631797  0.09683915  0.65570741    -0.72100
O2086       O  0.99874467  0.11352606  0.71180234    -0.75600
Al2087     Al  0.97532280  0.08619490  0.70228344     1.49000
C2088       C  0.99651296  0.13765517  0.70714095     0.91700
O2089       O  0.92445060  0.15257002  0.70491409    -0.81900
O2090       O  0.89656511  0.09467440  0.72985565    -0.75400
Al2091     Al  0.94657792  0.13243408  0.73261764     1.90100
O2092       O  0.90600791  0.12554178  0.66857708    -0.74500
O2093       O  0.92223317  0.05514952  0.69562575    -0.74300
O2094       O  0.93677842  0.08651783  0.63966595    -0.80000
O2095       O  0.96307335  0.05267411  0.68765636    -0.78200
O2096       O  0.94587474  0.10338896  0.70696386    -1.14300
O2097       O  0.97607939  0.07631701  0.75061700    -0.73500
C2098       C  0.97807052  0.09509222  0.77246709     0.97200
C2099       C  0.90932269  0.14841465  0.67996683     0.93600
Al2100     Al  0.91760421  0.09186011  0.68535434     1.55600
O2101       O  0.97444369  0.14793742  0.70607604    -0.78200
C2102       C  0.94133741  0.04281498  0.68324010     0.97700
C2103       C  0.90116524  0.10639176  0.75924540     0.92600
O2104       O  0.92010961  0.12132217  0.76215683    -0.83500
O2105       O  0.86627799  0.66808978  0.62890845    -0.82900
C2106       C  0.83676279  0.71470341  0.00356462     0.96400
O2107       O  0.85322826  0.69687636  0.51121916    -0.72100
O2108       O  0.88501573  0.66894948  0.55296829    -0.75600
Al2109     Al  0.84876397  0.67206827  0.54995519     1.49000
C2110       C  0.90230295  0.68186902  0.56764547     0.91700
O2111       O  0.87010942  0.73969936  0.60676297    -0.81900
O2112       O  0.80936667  0.72763804  0.62234470    -0.75400
Al2113     Al  0.86618416  0.70343601  0.61540364     1.90100
O2114       O  0.83812408  0.75080826  0.57188035    -0.74500
O2115       O  0.79115243  0.69290047  0.57162203    -0.74300
O2116       O  0.81913321  0.72031931  0.52502247    -0.80000
O2117       O  0.81363271  0.66767287  0.53650430    -0.78200
O2118       O  0.84390189  0.69858212  0.58010343    -1.14300
O2119       O  0.84525571  0.64584661  0.58790528    -0.73500
C2120       C  0.85611025  0.64719871  0.61828832     0.97200
C2121       C  0.85898621  0.75607705  0.58711669     0.93600
Al2122     Al  0.81682636  0.72053348  0.57374750     1.55600
O2123       O  0.89660722  0.69978560  0.58874950    -0.78200
C2124       C  0.79211980  0.67671122  0.54592368     0.97700
C2125       C  0.82504528  0.72675537  0.64750177     0.92600
O2126       O  0.84022997  0.70781918  0.64899896    -0.83500
O2127       O  0.61913040  0.66300402  0.87945135    -0.82900
C2128       C  0.65641435  0.69877272  0.50354570     0.96400
O2129       O  0.64405473  0.67745235  0.99696687    -0.72100
O2130       O  0.61229893  0.64768527  0.95499542    -0.75600
Al2131     Al  0.64690589  0.65786756  0.95222519     1.49000
C2132       C  0.59188258  0.66014952  0.95168587     0.91700
O2133       O  0.60998903  0.72720476  0.92707885    -0.81900
O2134       O  0.67417632  0.71400764  0.88082688    -0.75400
Al2135     Al  0.61633101  0.69507052  0.90504271     1.90100
O2136       O  0.64914308  0.74159080  0.93190928    -0.74500
O2137       O  0.69916389  0.68668439  0.93154882    -0.74300
O2138       O  0.66892415  0.71103475  0.98031699    -0.80000
O2139       O  0.68237384  0.65552904  0.96168901    -0.78200
O2140       O  0.64480672  0.68802817  0.92904755    -1.14300
O2141       O  0.64918125  0.63877621  0.90650062    -0.73500
C2142       C  0.63393368  0.64312495  0.88011840     0.97200
C2143       C  0.62521732  0.74563262  0.93221666     0.93600
Al2144     Al  0.67057528  0.71100263  0.93088333     1.55600
O2145       O  0.59233095  0.68225214  0.93805933    -0.78200
C2146       C  0.70153346  0.66897260  0.95455877     0.97700
C2147       C  0.65575081  0.71838411  0.85987341     0.92600
O2148       O  0.63334301  0.71131024  0.86760899    -0.83500
O2149       O  0.42919916  0.89074231  0.76507243    -0.82900
C2150       C  0.46607748  0.91254969  0.62894244     0.96400
O2151       O  0.44263979  0.91552826  0.63760900    -0.72100
O2152       O  0.41630040  0.87562548  0.66585911    -0.75600
Al2153     Al  0.42501796  0.90987667  0.68264039     1.49000
C2154       C  0.41421674  0.85537211  0.68456979     0.91700
O2155       O  0.47512652  0.85106507  0.70863474    -0.81900
O2156       O  0.48870854  0.92291851  0.74649187    -0.75400
Al2157     Al  0.45168996  0.87231448  0.73579257     1.90100
O2158       O  0.50353955  0.88249628  0.70404621    -0.74500
O2159       O  0.47100867  0.94817200  0.68568522    -0.74300
O2160       O  0.48226360  0.90388166  0.65057096    -0.80000
O2161       O  0.42969708  0.94606838  0.69387731    -0.78200
O2162       O  0.45322936  0.89885642  0.70547283    -1.14300
O2163       O  0.40268723  0.90701037  0.72514164    -0.73500
C2164       C  0.40813951  0.90157313  0.75732483     0.97200
C2165       C  0.49800640  0.85853324  0.70384571     0.93600
Al2166     Al  0.48360954  0.91342908  0.69764819     1.55600
O2167       O  0.42435583  0.85416110  0.71455661    -0.78200
C2168       C  0.44893049  0.95836224  0.68202323     0.97700
C2169       C  0.49154020  0.90433272  0.76861951     0.92600
O2170       O  0.47871561  0.88373526  0.76513726    -0.83500
O2171       O  0.41716739  0.12121310  0.99734747    -0.82900
C2172       C  0.45207286  0.08864596  0.62644158     0.96400
O2173       O  0.43266266  0.10121251  0.61501276    -0.72100
O2174       O  0.40676021  0.13082172  0.56803602    -0.75600
Al2175     Al  0.41721443  0.09454931  0.56965469     1.49000
C2176       C  0.41932417  0.15151034  0.56286282     0.91700
O2177       O  0.48564842  0.13273431  0.52784234    -0.81900
O2178       O  0.48766410  0.07618879  0.50986177    -0.75400
Al2179     Al  0.45113008  0.12430073  0.51638801     1.90100
O2180       O  0.49669440  0.10430127  0.56837853    -0.74500
O2181       O  0.45454709  0.04584164  0.54961394    -0.74300
O2182       O  0.46654606  0.07567791  0.60609985    -0.80000
O2183       O  0.42045217  0.05737076  0.57922347    -0.78200
O2184       O  0.44748818  0.09846467  0.54750004    -1.14300
O2185       O  0.39921028  0.08804044  0.52529472    -0.73500
C2186       C  0.39953157  0.10437036  0.49970950     0.97200
C2187       C  0.50170876  0.12390952  0.54963516     0.93600
Al2188     Al  0.47377599  0.07712650  0.55731075     1.55600
O2189       O  0.44131918  0.15016611  0.54923212    -0.78200
C2190       C  0.43738804  0.04023337  0.57230258     0.97700
C2191       C  0.48287421  0.08916288  0.98196666     0.92600
O2192       O  0.46223250  0.10195170  0.97966805    -0.83500
O2193       O  0.37138649  0.16093377  0.87876646    -0.82900
C2194       C  0.34020087  0.19221191  0.74786693     0.96400
O2195       O  0.35236330  0.17270968  0.76052340    -0.72100
O2196       O  0.38072938  0.14729537  0.80920859    -0.75600
Al2197     Al  0.34528342  0.15811897  0.80690440     1.49000
C2198       C  0.40084265  0.16061190  0.81274498     0.91700
O2199       O  0.38276824  0.22900039  0.84315024    -0.81900
O2200       O  0.32763551  0.23231753  0.86120277    -0.75400
Al2201     Al  0.37439830  0.19449862  0.85720920     1.90100
O2202       O  0.35532308  0.23824406  0.80109624    -0.74500
O2203       O  0.29736985  0.19692363  0.82540900    -0.74300
O2204       O  0.32585793  0.20631708  0.76693212    -0.80000
O2205       O  0.30890432  0.16126551  0.79786175    -0.78200
O2206       O  0.34906867  0.18959966  0.82673711    -1.14300
O2207       O  0.33875263  0.14142215  0.85271098    -0.73500
C2208       C  0.35466594  0.14311196  0.87829915     0.97200
C2209       C  0.37487732  0.24379985  0.81895382     0.93600
Al2210     Al  0.32817483  0.21598313  0.81501518     1.55600
O2211       O  0.39976885  0.18341423  0.82477099    -0.78200
C2212       C  0.29172809  0.17807831  0.80504964     0.97700
C2213       C  0.33913629  0.22739630  0.88997606     0.92600
O2214       O  0.35221070  0.20678540  0.89282394    -0.83500
O2215       O  0.13329390  0.16650835  0.62108408    -0.82900
C2216       C  0.16100792  0.20121092  0.75329520     0.96400
O2217       O  0.14698665  0.18306862  0.74146278    -0.72100
O2218       O  0.11693445  0.15965338  0.69448176    -0.75600
Al2219     Al  0.15354936  0.16511284  0.69762236     1.49000
C2220       C  0.09869024  0.17460272  0.68543467     0.91700
O2221       O  0.12570621  0.23684098  0.65003365    -0.81900
O2222       O  0.18136853  0.23465612  0.63862740    -0.75400
Al2223     Al  0.13202339  0.20106897  0.63922449     1.90100
O2224       O  0.15130981  0.24575334  0.69439228    -0.74500
O2225       O  0.20592599  0.19734942  0.67899314    -0.74300
O2226       O  0.17671045  0.21305254  0.73386625    -0.80000
O2227       O  0.18996333  0.16418863  0.70839649    -0.78200
O2228       O  0.15426649  0.19541530  0.67387727    -1.14300
O2229       O  0.15950355  0.14402084  0.65531051    -0.73500
C2230       C  0.14657547  0.14625961  0.62689838     0.97200
C2231       C  0.13272988  0.25177691  0.67458860     0.93600
Al2232     Al  0.17710718  0.22020555  0.68521481     1.55600
O2233       O  0.10309412  0.19451557  0.66720754    -0.78200
C2234       C  0.20888149  0.17865971  0.70079445     0.97700
C2235       C  0.17000180  0.22998366  0.60991433     0.92600
O2236       O  0.15815481  0.20889703  0.60668724    -0.83500
O2237       O  0.54069628  0.91123669  0.51674863    -0.82900
C2238       C  0.56531702  0.90680936  0.87444765     0.96400
O2239       O  0.55193450  0.92452823  0.88852253    -0.72100
O2240       O  0.51561721  0.89974858  0.92298314    -0.75600
Al2241     Al  0.53855335  0.92720509  0.93474783     1.49000
C2242       C  0.50767382  0.88232646  0.94391291     0.91700
O2243       O  0.56515265  0.85443001  0.96355461    -0.81900
O2244       O  0.60818096  0.91666893  0.98402864    -0.75400
Al2245     Al  0.55348911  0.88429723  0.98835762     1.90100
O2246       O  0.60254764  0.87014042  0.94825201    -0.74500
O2247       O  0.59444452  0.94235482  0.92177967    -0.74300
O2248       O  0.58278941  0.89486801  0.89163285    -0.80000
O2249       O  0.55846313  0.95741442  0.94379495    -0.78200
O2250       O  0.56207298  0.90594922  0.95388317    -1.14300
O2251       O  0.51966870  0.93390847  0.97680750    -0.73500
C2252       C  0.52330515  0.92723515  0.50832591     0.97200
C2253       C  0.58803494  0.85089342  0.95382319     0.93600
Al2254     Al  0.59452007  0.90619107  0.93788655     1.55600
O2255       O  0.52016474  0.87627174  0.97121170    -0.78200
C2256       C  0.57849697  0.96095275  0.92545170     0.97700
C2257       C  0.60332361  0.90389662  0.01236466     0.92600
O2258       O  0.58477626  0.88802307  0.51343323    -0.83500
O2259       O  0.54303489  0.09549020  0.72921875    -0.82900
C2260       C  0.55759911  0.09619705  0.87472035     0.96400
O2261       O  0.54706744  0.07808159  0.85773078    -0.72100
O2262       O  0.51242480  0.10322584  0.82153135    -0.75600
Al2263     Al  0.53689299  0.07720260  0.80979470     1.49000
C2264       C  0.50378800  0.12022416  0.80051436     0.91700
O2265       O  0.56027170  0.15248371  0.78728676    -0.81900
O2266       O  0.60872185  0.09332050  0.77143590    -0.75400
Al2267     Al  0.55232951  0.12241218  0.76041421     1.90100
O2268       O  0.59685851  0.13820519  0.80825831    -0.74500
O2269       O  0.59189286  0.06446306  0.82902347    -0.74300
O2270       O  0.57476960  0.11035919  0.86049193    -0.80000
O2271       O  0.55929394  0.04844509  0.80034596    -0.78200
O2272       O  0.55999479  0.10035213  0.79493638    -1.14300
O2273       O  0.51992784  0.07215859  0.76548277    -0.73500
C2274       C  0.52344845  0.08191754  0.73526878     0.97200
C2275       C  0.58188716  0.15685274  0.80053854     0.93600
Al2276     Al  0.59078874  0.10139369  0.81551400     1.55600
O2277       O  0.51736810  0.12797390  0.77476398    -0.78200
C2278       C  0.57783473  0.04504643  0.82145274     0.97700
C2279       C  0.60527410  0.10618127  0.74287148     0.92600
O2280       O  0.58563186  0.12063715  0.73894420    -0.83500
O2281       O  0.84436158  0.32964134  0.60806917    -0.82900
C2282       C  0.83248115  0.29076047  0.74573102     0.96400
O2283       O  0.83563912  0.31482104  0.73918986    -0.72100
O2284       O  0.87724557  0.32648306  0.70161507    -0.75600
Al2285     Al  0.84116025  0.33270435  0.69461366     1.49000
C2286       C  0.89380127  0.32336901  0.67747083     0.91700
O2287       O  0.87115716  0.26773710  0.64867132    -0.81900
O2288       O  0.79633809  0.28160112  0.63623258    -0.75400
Al2289     Al  0.85673758  0.29902877  0.63012590     1.90100
O2290       O  0.83476753  0.24962747  0.66321737    -0.74500
O2291       O  0.78978863  0.30324389  0.70086206    -0.74300
O2292       O  0.82951881  0.27420498  0.72184890    -0.80000
O2293       O  0.80527624  0.34265490  0.69346872    -0.78200
O2294       O  0.83711480  0.30407774  0.66796550    -1.14300
O2295       O  0.84802632  0.35596251  0.65388601    -0.73500
C2296       C  0.84743436  0.35231626  0.62041707     0.97200
C2297       C  0.85857524  0.24749699  0.65625977     0.93600
Al2298     Al  0.81433338  0.27955186  0.67944980     1.55600
O2299       O  0.88670339  0.31648764  0.64699120    -0.78200
C2300       C  0.78803715  0.32767530  0.70567973     0.97700
C2301       C  0.80825021  0.27510316  0.60849326     0.92600
O2302       O  0.83184766  0.28001803  0.60456740    -0.83500
O2303       O  0.63964945  0.33426415  0.88673636    -0.82900
C2304       C  0.66231918  0.29928095  0.74928630     0.96400
O2305       O  0.65307627  0.32184359  0.75553928    -0.72100
O2306       O  0.61158996  0.33815068  0.79055354    -0.75600
Al2307     Al  0.64809331  0.34029998  0.80012002     1.49000
C2308       C  0.59420561  0.33743658  0.81374193     0.91700
O2309       O  0.61057330  0.27902773  0.83536420    -0.81900
O2310       O  0.68202796  0.28441859  0.86946904    -0.75400
Al2311     Al  0.62556393  0.30715143  0.86047433     1.90100
O2312       O  0.64771706  0.25890768  0.82431330    -0.74500
O2313       O  0.70149498  0.30929541  0.81367548    -0.74300
O2314       O  0.66890445  0.28416381  0.77351005    -0.80000
O2315       O  0.68413680  0.34743160  0.80130135    -0.78200
O2316       O  0.64932929  0.31151492  0.82670961    -1.14300
O2317       O  0.64330947  0.36311697  0.84291331    -0.73500
C2318       C  0.64240016  0.35757555  0.87620700     0.97200
C2319       C  0.62322795  0.25878939  0.82626334     0.93600
Al2320     Al  0.67306520  0.28654246  0.82100008     1.55600
O2321       O  0.59958043  0.32946686  0.84398160    -0.78200
C2322       C  0.70345607  0.33234971  0.80198540     0.97700
C2323       C  0.66544478  0.27503974  0.88987716     0.92600
O2324       O  0.64285611  0.28311205  0.88826915    -0.83500
O2325       O  0.44598561  0.59467034  0.52621862    -0.82900
C2326       C  0.45016424  0.59048408  0.88057492     0.96400
O2327       O  0.45832924  0.57359923  0.90197967    -0.72100
O2328       O  0.48776009  0.59202042  0.94985926    -0.75600
Al2329     Al  0.45862749  0.57000379  0.95089587     1.49000
C2330       C  0.49289405  0.61273744  0.96623128     0.91700
O2331       O  0.43670883  0.64998271  0.96240250    -0.81900
O2332       O  0.38512783  0.59411611  0.96818743    -0.75400
Al2333     Al  0.44059884  0.62011920  0.99160663     1.90100
O2334       O  0.40379351  0.63644156  0.93326314    -0.74500
O2335       O  0.40625932  0.56501021  0.91455993    -0.74300
O2336       O  0.43179408  0.60605964  0.88891743    -0.80000
O2337       O  0.43247997  0.54281308  0.94786549    -0.78200
O2338       O  0.43619406  0.59656423  0.95749973    -1.14300
O2339       O  0.46563395  0.56279256  0.00031114    -0.73500
C2340       C  0.46503309  0.57966388  0.52491433     0.97200
C2341       C  0.41727907  0.65492265  0.94422053     0.93600
Al2342     Al  0.40904739  0.60004166  0.92898754     1.55600
O2343       O  0.47594213  0.62445812  0.98397733    -0.78200
C2344       C  0.41637078  0.54360254  0.92249950     0.97700
C2345       C  0.38629493  0.60634658  0.99765939     0.92600
O2346       O  0.40578639  0.61982131  0.50567312    -0.83500
O2347       O  0.46651557  0.39947931  0.72728828    -0.82900
C2348       C  0.45358030  0.41128589  0.86859869     0.96400
O2349       O  0.46739290  0.42041720  0.84468952    -0.72100
O2350       O  0.49133114  0.40148815  0.79152822    -0.75600
Al2351     Al  0.46416860  0.42705576  0.79775158     1.49000
C2352       C  0.49193392  0.37673059  0.78753487     0.91700
O2353       O  0.42247956  0.35274495  0.77103627    -0.81900
O2354       O  0.38903757  0.39839952  0.77781056    -0.75400
Al2355     Al  0.44359103  0.38040427  0.75511237     1.90100
O2356       O  0.41442403  0.36395368  0.82497286    -0.74500
O2357       O  0.40503188  0.43663264  0.82318052    -0.74300
O2358       O  0.43171192  0.40177524  0.86230064    -0.80000
O2359       O  0.44125607  0.45585330  0.80901206    -0.78200
O2360       O  0.43983820  0.40311379  0.79096750    -1.14300
O2361       O  0.46610278  0.43836280  0.74957440    -0.73500
C2362       C  0.47524312  0.42213287  0.72777908     0.97200
C2363       C  0.41478812  0.34695707  0.80137468     0.93600
Al2364     Al  0.41236031  0.40046744  0.81910451     1.55600
O2365       O  0.47230183  0.36413793  0.77747071    -0.78200
C2366       C  0.41955161  0.45616244  0.82453530     0.97700
C2367       C  0.39318991  0.39817890  0.74420189     0.92600
O2368       O  0.41569139  0.39568268  0.73155675    -0.83500
C2369       C  0.41049835  0.49561314  0.90966464    -0.10300
C2370       C  0.41215358  0.52126804  0.89730691     0.05900
C2371       C  0.41072962  0.52521348  0.85979497    -0.04100
C2372       C  0.41277567  0.50396906  0.83632679    -0.08500
C2373       C  0.41260105  0.47832513  0.84879163     0.05000
C2374       C  0.40900841  0.47447143  0.88589454    -0.03500
Br2375     Br  0.40221478  0.44117041  0.90682330    -0.03200
H2376       H  0.40991201  0.49199125  0.93793859     0.08900
H2377       H  0.41423510  0.50751316  0.80808232     0.06900
Br2378     Br  0.40594927  0.55856514  0.83734820    -0.03700
C2379       C  0.55443161  0.33856693  0.77619490    -0.10300
C2380       C  0.56751265  0.34637195  0.80693316     0.05900
C2381       C  0.55390678  0.36105848  0.83271865    -0.04100
C2382       C  0.52926876  0.37028007  0.82574373    -0.08500
C2383       C  0.51647665  0.36327323  0.79480111     0.05000
C2384       C  0.52861603  0.34594630  0.77077003    -0.03500
Br2385     Br  0.51079227  0.33151399  0.73093452    -0.03200
H2386       H  0.56395941  0.32596566  0.75710486     0.08900
H2387       H  0.51977942  0.38280044  0.84503065     0.06900
Br2388     Br  0.56702251  0.36893749  0.87869456    -0.03700
C2389       C  0.72521433  0.35115304  0.74861040    -0.10300
C2390       C  0.72754883  0.33977463  0.78266340     0.05900
C2391       C  0.75173055  0.32955999  0.79235758    -0.04100
C2392       C  0.77198964  0.32896889  0.76763038    -0.08500
C2393       C  0.76859574  0.33702954  0.73225846     0.05000
C2394       C  0.74527534  0.34936014  0.72330968    -0.03500
Br2395     Br  0.73893443  0.36096831  0.67591746    -0.03200
H2396       H  0.70677175  0.35880771  0.74018316     0.08900
H2397       H  0.79005065  0.32020651  0.77546418     0.06900
Br2398     Br  0.75753210  0.31405620  0.83801601    -0.03700
C2399       C  0.58148592  0.19845469  0.83458690    -0.10300
C2400       C  0.59032435  0.18394854  0.80544340     0.05900
C2401       C  0.60729867  0.19558931  0.78111632    -0.04100
C2402       C  0.61768828  0.22004954  0.78838863    -0.08500
C2403       C  0.60984117  0.23421583  0.81833364     0.05000
C2404       C  0.59059611  0.22379666  0.84069197    -0.03500
Br2405     Br  0.57658517  0.24273475  0.88027677    -0.03200
H2406       H  0.56761270  0.19000202  0.85268605     0.08900
H2407       H  0.63156287  0.22834155  0.77012236     0.06900
Br2408     Br  0.61489985  0.18018165  0.73605440    -0.03700
C2409       C  0.55775189  0.98722873  0.87867585    -0.10300
C2410       C  0.57938932  0.98326163  0.90009732     0.05900
C2411       C  0.60173916  0.99757675  0.89244437    -0.04100
C2412       C  0.60150487  0.01658175  0.86529647    -0.08500
C2413       C  0.57955992  0.02085443  0.84399220     0.05000
C2414       C  0.55779795  0.00492526  0.85044663    -0.03500
Br2415     Br  0.52692983  0.00550985  0.82262985    -0.03200
H2416       H  0.54067731  0.97566895  0.88303092     0.08900
H2417       H  0.61840109  0.02851337  0.86142967     0.06900
Br2418     Br  0.63231886  0.99291541  0.91988652    -0.03700
C2419       C  0.43491899  0.13087762  0.83226766    -0.10300
C2420       C  0.42604114  0.14870074  0.80706020     0.05900
C2421       C  0.44227107  0.15672073  0.77952194    -0.04100
C2422       C  0.46765080  0.14772207  0.77847621    -0.08500
C2423       C  0.47704066  0.13006149  0.80417446     0.05000
C2424       C  0.45985840  0.12085432  0.83059472    -0.03500
Br2425     Br  0.46778435  0.09383250  0.86432389    -0.03200
H2426       H  0.42242585  0.12499263  0.85378293     0.08900
H2427       H  0.47989001  0.15429660  0.75700969     0.06900
Br2428     Br  0.43011689  0.17896676  0.74219544    -0.03700
C2429       C  0.23789963  0.20120083  0.74308545    -0.10300
C2430       C  0.23149087  0.17804087  0.72522168     0.05900
C2431       C  0.24315961  0.15461139  0.73661861    -0.04100
C2432       C  0.26116279  0.15478499  0.76448807    -0.08500
C2433       C  0.26785574  0.17806604  0.78239748     0.05000
C2434       C  0.25545847  0.20147747  0.77130931    -0.03500
Br2435     Br  0.26191758  0.23514842  0.79166291    -0.03200
H2436       H  0.22861338  0.21938016  0.73564347     0.08900
H2437       H  0.27071409  0.13660860  0.77131233     0.06900
Br2438     Br  0.23670591  0.12228075  0.71271197    -0.03700
C2439       C  0.37349637  0.29057586  0.83095774    -0.10300
C2440       C  0.38637343  0.26954389  0.81507695     0.05900
C2441       C  0.40999974  0.27355275  0.79794524    -0.04100
C2442       C  0.41911458  0.29902674  0.79375284    -0.08500
C2443       C  0.40574960  0.32034172  0.80867231     0.05000
C2444       C  0.38331398  0.31578018  0.82880532    -0.03500
Br2445     Br  0.36462004  0.34287098  0.85313765    -0.03200
H2446       H  0.35578480  0.28728716  0.84546985     0.08900
H2447       H  0.43684450  0.30219315  0.77924971     0.06900
Br2448     Br  0.43050945  0.24499767  0.78085373    -0.03700
C2449       C  0.34849426  0.13441880  0.94225470    -0.10300
C2450       C  0.35558236  0.12464179  0.90876192     0.05900
C2451       C  0.37241974  0.10293819  0.90752701    -0.04100
C2452       C  0.38447810  0.09384954  0.93862737    -0.08500
C2453       C  0.37939172  0.10551883  0.97169017     0.05000
C2454       C  0.36001782  0.12492471  0.97343030    -0.03500
Br2455     Br  0.35127763  0.14161666  0.01736684    -0.03200
H2456       H  0.33598698  0.15139765  0.94392093     0.08900
H2457       H  0.39952999  0.07920442  0.93645240     0.06900
Br2458     Br  0.38192649  0.08740585  0.86314234    -0.03700
C2459       C  0.52686700  0.11938644  0.91153531    -0.10300
C2460       C  0.54664701  0.10082364  0.90990991     0.05900
C2461       C  0.54629989  0.07983184  0.93387785    -0.04100
C2462       C  0.52490727  0.07572858  0.95566743    -0.08500
C2463       C  0.50380511  0.09302712  0.95535777     0.05000
C2464       C  0.50563244  0.11590073  0.93392687    -0.03500
Br2465     Br  0.48000827  0.14306731  0.43149445    -0.03200
H2466       H  0.52663801  0.13537199  0.89265366     0.08900
H2467       H  0.52477900  0.05874301  0.97279975     0.06900
Br2468     Br  0.57411794  0.05520376  0.93540341    -0.03700
C2469       C  0.46487752  0.06549060  0.68010977    -0.10300
C2470       C  0.46064726  0.08962161  0.66307958     0.05900
C2471       C  0.47512289  0.11133761  0.67313543    -0.04100
C2472       C  0.49580840  0.10797649  0.69597976    -0.08500
C2473       C  0.50176034  0.08330889  0.71041605     0.05000
C2474       C  0.48504033  0.06230829  0.70421215    -0.03500
Br2475     Br  0.49034847  0.02846937  0.72497743    -0.03200
H2476       H  0.45407600  0.04847417  0.67201302     0.08900
H2477       H  0.50749257  0.12480419  0.70210591     0.06900
Br2478     Br  0.46970732  0.14508775  0.65209833    -0.03700
C2479       C  0.46630059  0.98709673  0.63332685    -0.10300
C2480       C  0.44583061  0.98128670  0.65666008     0.05900
C2481       C  0.42225413  0.99442519  0.65046162    -0.04100
C2482       C  0.41961235  0.01202104  0.62170946    -0.08500
C2483       C  0.43992522  0.01721387  0.59766701     0.05000
C2484       C  0.46357802  0.00410521  0.60411419    -0.03500
Br2485     Br  0.49361250  0.00844273  0.57502976    -0.03200
H2486       H  0.48477422  0.97784185  0.63730132     0.08900
H2487       H  0.40147602  0.02226005  0.61870732     0.06900
Br2488     Br  0.39323662  0.99052619  0.68145619    -0.03700
C2489       C  0.53426127  0.91975704  0.78999858    -0.10300
C2490       C  0.51277215  0.90361603  0.79482937     0.05900
C2491       C  0.51407711  0.88374171  0.82114237    -0.04100
C2492       C  0.53611892  0.88076708  0.84170323    -0.08500
C2493       C  0.55607570  0.89884857  0.83967984     0.05000
C2494       C  0.55559730  0.91766331  0.81242922    -0.03500
Br2495     Br  0.58265766  0.94266477  0.80783812    -0.03200
H2496       H  0.53432375  0.93437339  0.76923070     0.08900
H2497       H  0.53573235  0.86689237  0.86345878     0.06900
Br2498     Br  0.48557997  0.86191614  0.83446246    -0.03700
C2499       C  0.47967499  0.92631929  0.53244369    -0.10300
C2500       C  0.50516425  0.93501189  0.53565048     0.05900
C2501       C  0.51478813  0.94175539  0.56879213    -0.04100
C2502       C  0.50077518  0.93539675  0.59871110    -0.08500
C2503       C  0.47670776  0.92311907  0.59602502     0.05000
C2504       C  0.46520315  0.92040091  0.56271502    -0.03500
Br2505     Br  0.43184514  0.90534102  0.55712444    -0.03200
H2506       H  0.47216775  0.92117022  0.50670166     0.08900
H2507       H  0.50942618  0.93888238  0.62432834     0.06900
Br2508     Br  0.54826337  0.95680211  0.57418133    -0.03700
C2509       C  0.52180371  0.65047198  0.97332492    -0.10300
C2510       C  0.51892890  0.62382764  0.96518992     0.05900
C2511       C  0.54098761  0.60867955  0.95730285    -0.04100
C2512       C  0.56484156  0.62082349  0.95476158    -0.08500
C2513       C  0.56730707  0.64779127  0.96055606     0.05000
C2514       C  0.54571164  0.66245045  0.97134265    -0.03500
Br2515     Br  0.54773691  0.69850003  0.98504308    -0.03200
H2516       H  0.50530435  0.66225909  0.98087328     0.08900
H2517       H  0.58145032  0.60920569  0.94713236     0.06900
Br2518     Br  0.54042793  0.57140429  0.95102481    -0.03700
C2519       C  0.58271254  0.80634284  0.93006744    -0.10300
C2520       C  0.59774265  0.82406926  0.94894223     0.05900
C2521       C  0.62133467  0.81562931  0.96322877    -0.04100
C2522       C  0.62985834  0.79003400  0.95755211    -0.08500
C2523       C  0.61502138  0.77228690  0.93821158     0.05000
C2524       C  0.59103943  0.78067099  0.92450642    -0.03500
Br2525     Br  0.56906870  0.75901834  0.89629353    -0.03200
H2526       H  0.56455805  0.81268165  0.91894930     0.08900
H2527       H  0.64799545  0.78384242  0.96891015     0.06900
Br2528     Br  0.64169808  0.83729640  0.99316172    -0.03700
C2529       C  0.74529992  0.66486647  0.53637742    -0.10300
C2530       C  0.76938004  0.67134425  0.52226639     0.05900
C2531       C  0.77141208  0.67239845  0.98452899    -0.04100
C2532       C  0.74940290  0.67184493  0.96303789    -0.08500
C2533       C  0.72523225  0.66623723  0.97719261     0.05000
C2534       C  0.72395997  0.66052351  0.51410829    -0.03500
Br2535     Br  0.69427966  0.64528166  0.53631352    -0.03200
H2536       H  0.74331378  0.66203432  0.56469996     0.08900
H2537       H  0.75134374  0.67500735  0.93476463     0.06900
Br2538     Br  0.80334795  0.67357785  0.95915133    -0.03700
C2539       C  0.90981877  0.19324615  0.65571459    -0.10300
C2540       C  0.89539782  0.17133113  0.66544465     0.05900
C2541       C  0.86857185  0.17399858  0.66873049    -0.04100
C2542       C  0.85695886  0.19872509  0.66491739    -0.08500
C2543       C  0.87153388  0.22119191  0.65696230     0.05000
C2544       C  0.89831354  0.21781933  0.65092831    -0.03500
Br2545     Br  0.92121113  0.24558580  0.63780382    -0.03200
H2546       H  0.93051860  0.19143074  0.65327328     0.08900
H2547       H  0.83651263  0.20042441  0.66958483     0.06900
Br2548     Br  0.84734948  0.14497124  0.68174003    -0.03700
C2549       C  0.03932890  0.14722163  0.73033009    -0.10300
C2550       C  0.02041429  0.15264832  0.70486649     0.05900
C2551       C  0.02687835  0.16735571  0.67477139    -0.04100
C2552       C  0.05233226  0.17534563  0.66982057    -0.08500
C2553       C  0.07169627  0.16834394  0.69415638     0.05000
C2554       C  0.06478537  0.15481562  0.72524637    -0.03500
Br2555     Br  0.08898405  0.14587788  0.76163470    -0.03200
H2556       H  0.03447230  0.13579030  0.75359459     0.08900
H2557       H  0.05726306  0.18577513  0.64576493     0.06900
Br2558     Br  0.00253291  0.17397704  0.63776112    -0.03700
C2559       C  0.90750352  0.80523441  0.55570671    -0.10300
C2560       C  0.89829217  0.82864181  0.57075425     0.05900
C2561       C  0.87541063  0.82795079  0.59127520    -0.04100
C2562       C  0.86238210  0.80421936  0.59597349    -0.08500
C2563       C  0.87176132  0.78112859  0.58056447     0.05000
C2564       C  0.89444960  0.78176896  0.56030276    -0.03500
Br2565     Br  0.90783333  0.75121043  0.53697997    -0.03200
H2566       H  0.92473198  0.80518238  0.53948340     0.08900
H2567       H  0.84513741  0.80369245  0.61215475     0.06900
Br2568     Br  0.86146489  0.85811922  0.61491831    -0.03700
C2569       C  0.91461536  0.99004037  0.61969944    -0.10300
C2570       C  0.93572035  0.98546102  0.59654549     0.05900
C2571       C  0.95879805  0.99867936  0.60446861    -0.04100
C2572       C  0.96029372  0.01527426  0.63419379    -0.08500
C2573       C  0.93905755  0.02057588  0.65665526     0.05000
C2574       C  0.91603747  0.00725979  0.64904151    -0.03500
Br2575     Br  0.88646123  0.01020271  0.67922056    -0.03200
H2576       H  0.89687456  0.97953930  0.61559853     0.08900
H2577       H  0.97849875  0.02446611  0.63942836     0.06900
Br2578     Br  0.98970613  0.99437887  0.57709145    -0.03700
C2579       C  0.13434515  0.29984256  0.68089138    -0.10300
C2580       C  0.11959818  0.27703725  0.67886800     0.05900
C2581       C  0.09257430  0.27896089  0.67912567    -0.04100
C2582       C  0.08082462  0.30336867  0.68283363    -0.08500
C2583       C  0.09551527  0.32615401  0.68508135     0.05000
C2584       C  0.12249861  0.32438919  0.68350910    -0.03500
Br2585     Br  0.14399633  0.35457846  0.68647570    -0.03200
H2586       H  0.15513348  0.29856233  0.67999511     0.08900
H2587       H  0.06004230  0.30458153  0.68434765     0.06900
Br2588     Br  0.07064396  0.24900761  0.67644921    -0.03700
C2589       C  0.95965020  0.33538773  0.72019738    -0.10300
C2590       C  0.97356636  0.34503614  0.69109676     0.05900
C2591       C  0.96158952  0.34553702  0.65769883    -0.04100
C2592       C  0.93624170  0.33716389  0.65394297    -0.08500
C2593       C  0.92157038  0.32917812  0.68332890     0.05000
C2594       C  0.93376820  0.32795115  0.71678017    -0.03500
Br2595     Br  0.91623405  0.31723489  0.75901432    -0.03200
H2596       H  0.96833290  0.33538031  0.74620224     0.08900
H2597       H  0.92750058  0.33842287  0.62798402     0.06900
Br2598     Br  0.97824629  0.35949461  0.61656108    -0.03700
C2599       C  0.03432999  0.49231504  0.64081090    -0.10300
C2600       C  0.05705666  0.48016358  0.65291203     0.05900
C2601       C  0.08030356  0.48775574  0.63621891    -0.04100
C2602       C  0.08018161  0.50673269  0.60877353    -0.08500
C2603       C  0.05716964  0.51811072  0.59596194     0.05000
C2604       C  0.03400461  0.51040987  0.61289222    -0.03500
Br2605     Br  0.00056092  0.52396455  0.60145723    -0.03200
H2606       H  0.01603431  0.48699401  0.65246135     0.08900
H2607       H  0.09834797  0.51259171  0.59724041     0.06900
Br2608     Br  0.11277961  0.47240925  0.64838768    -0.03700
C2609       C  0.96451763  0.65828323  0.52666047    -0.10300
C2610       C  0.97734254  0.64852186  0.55674779     0.05900
C2611       C  0.96641720  0.65302234  0.59051654    -0.04100
C2612       C  0.94277254  0.66596832  0.59344426    -0.08500
C2613       C  0.92924934  0.67385761  0.56320174     0.05000
C2614       C  0.94044088  0.67039123  0.52962194    -0.03500
Br2615     Br  0.92326472  0.68136920  0.48722713    -0.03200
H2616       H  0.97255138  0.65529530  0.50047514     0.08900
H2617       H  0.93414032  0.66844579  0.61943599     0.06900
Br2618     Br  0.98218043  0.64159855  0.63362897    -0.03700
C2619       C  0.36250269  0.39607110  0.65487113    -0.10300
C2620       C  0.34790109  0.37334599  0.65912668     0.05900
C2621       C  0.34218174  0.36479667  0.69385471    -0.04100
C2622       C  0.35376978  0.37673307  0.72313625    -0.08500
C2623       C  0.37190382  0.39659456  0.71826192     0.05000
C2624       C  0.37470788  0.40755327  0.68404067    -0.03500
Br2625     Br  0.39820274  0.43559234  0.67499991    -0.03200
H2626       H  0.36735830  0.40274906  0.62843452     0.08900
H2627       H  0.35143659  0.36789609  0.74904797     0.06900
Br2628     Br  0.32250923  0.33378107  0.70210089    -0.03700
C2629       C  0.36069950  0.26591012  0.97086369    -0.10300
C2630       C  0.34650354  0.28905173  0.96757249     0.05900
C2631       C  0.33027454  0.29217373  0.93823712    -0.04100
C2632       C  0.32775973  0.27183567  0.91353639    -0.08500
C2633       C  0.34051015  0.24764510  0.91832323     0.05000
C2634       C  0.35738494  0.24504272  0.94762310    -0.03500
Br2635     Br  0.37548134  0.21344006  0.96029975    -0.03200
H2636       H  0.37246494  0.26295568  0.99410200     0.08900
H2637       H  0.31534663  0.27484033  0.89092258     0.06900
Br2638     Br  0.31028898  0.32343716  0.43250059    -0.03700
C2639       C  0.31978353  0.22569745  0.66702973    -0.10300
C2640       C  0.33704704  0.24673268  0.66810658     0.05900
C2641       C  0.35937617  0.24403573  0.68955390    -0.04100
C2642       C  0.36294777  0.22168849  0.71020865    -0.08500
C2643       C  0.34417231  0.20240535  0.71216193     0.05000
C2644       C  0.32311031  0.20388011  0.68903858    -0.03500
Br2645     Br  0.29749056  0.17726841  0.68897898    -0.03200
H2646       H  0.30320953  0.22651230  0.64979498     0.08900
H2647       H  0.37892939  0.22107229  0.72857052     0.06900
Br2648     Br  0.38579232  0.26981289  0.69471727    -0.03700
C2649       C  0.37292292  0.20562990  0.59028458    -0.10300
C2650       C  0.38323361  0.22684815  0.57176599     0.05900
C2651       C  0.40642180  0.22392588  0.55320104    -0.04100
C2652       C  0.41827744  0.19938308  0.55165439    -0.08500
C2653       C  0.40759564  0.17758830  0.56915843     0.05000
C2654       C  0.38500687  0.18117959  0.58959403    -0.03500
Br2655     Br  0.37017841  0.15429251  0.61859406    -0.03200
H2656       H  0.35558296  0.20825432  0.60593780     0.08900
H2657       H  0.43569044  0.19732121  0.53605032     0.06900
Br2658     Br  0.42236941  0.25285763  0.52956646    -0.03700
C2659       C  0.23426186  0.34603703  0.99758068    -0.10300
C2660       C  0.22937443  0.32404287  0.97598104     0.05900
C2661       C  0.24421597  0.30109811  0.48286438    -0.04100
C2662       C  0.26133149  0.30020097  0.51152566    -0.08500
C2663       C  0.26620329  0.32217531  0.53259609     0.05000
C2664       C  0.25270680  0.34528879  0.02495476    -0.03500
Br2665     Br  0.25854612  0.37643716  0.05188022    -0.03200
H2666       H  0.22346324  0.36393826  0.99346482     0.08900
H2667       H  0.27216420  0.28236660  0.51604110     0.06900
Br2668     Br  0.24283903  0.26969772  0.45505444    -0.03700
C2669       C  0.11639353  0.39123102  0.85438216    -0.10300
C2670       C  0.13560555  0.37224253  0.84833605     0.05900
C2671       C  0.14155461  0.36575539  0.81285400    -0.04100
C2672       C  0.12773085  0.37707454  0.78470650    -0.08500
C2673       C  0.10677461  0.39398116  0.79090278     0.05000
C2674       C  0.10175149  0.40164412  0.82626173    -0.03500
Br2675     Br  0.07352802  0.42438999  0.83780992    -0.03200
H2676       H  0.11073334  0.39577136  0.88136552     0.08900
H2677       H  0.13150101  0.37024040  0.75810010     0.06900
Br2678     Br  0.16554187  0.33824688  0.80181607    -0.03700
C2679       C  0.17921247  0.27523992  0.58909499    -0.10300
C2680       C  0.16536842  0.25188029  0.58476357     0.05900
C2681       C  0.14412051  0.25207515  0.56125003    -0.04100
C2682       C  0.13786736  0.27469972  0.54254942    -0.08500
C2683       C  0.15380187  0.29650890  0.54347660     0.05000
C2684       C  0.17372214  0.29726915  0.56841627    -0.03500
Br2685     Br  0.19501245  0.32746945  0.57272603    -0.03200
H2686       H  0.19476467  0.27625962  0.60801385     0.08900
H2687       H  0.12280491  0.27374148  0.52280079     0.06900
Br2688     Br  0.12348251  0.22227763  0.55007525    -0.03700
C2689       C  0.14231979  0.24884133  0.82109653    -0.10300
C2690       C  0.16503201  0.25011969  0.84117361     0.05900
C2691       C  0.18418020  0.23090181  0.83618047    -0.04100
C2692       C  0.18088390  0.21186919  0.80997122    -0.08500
C2693       C  0.15863027  0.21156858  0.78895189     0.05000
C2694       C  0.13901727  0.22984899  0.79530487    -0.03500
Br2695     Br  0.10904450  0.23218485  0.76586747    -0.03200
H2696       H  0.12695965  0.26294189  0.82506880     0.08900
H2697       H  0.19656265  0.19848661  0.80410867     0.06900
Br2698     Br  0.21555594  0.23057506  0.86273130    -0.03700
C2699       C  0.96370047  0.93580090  0.67610181    -0.10300
C2700       C  0.96067033  0.91198256  0.65809664     0.05900
C2701       C  0.97729602  0.89110998  0.66581579    -0.04100
C2702       C  0.99829421  0.89504220  0.68795945    -0.08500
C2703       C  0.00277474  0.91952602  0.70367326     0.05000
C2704       C  0.98443060  0.93966513  0.69902703    -0.03500
Br2705     Br  0.98800533  0.97357249  0.72012049    -0.03200
H2706       H  0.95148568  0.95231272  0.66942191     0.08900
H2707       H  0.01130379  0.87881046  0.69268970     0.06900
Br2708     Br  0.97417283  0.85806874  0.64216162    -0.03700
C2709       C  0.02503475  0.92846608  0.95548535    -0.10300
C2710       C  0.00356365  0.91205760  0.95191389     0.05900
C2711       C  0.00374121  0.89337116  0.92411663    -0.04100
C2712       C  0.02477039  0.89158480  0.90111230    -0.08500
C2713       C  0.04533199  0.90897243  0.90345691     0.05000
C2714       C  0.04554149  0.92728182  0.93123646    -0.03500
Br2715     Br  0.07305921  0.95173818  0.93576640    -0.03200
H2716       H  0.02593436  0.94228721  0.97717564     0.08900
H2717       H  0.02376024  0.87827965  0.87880516     0.06900
Br2718     Br  0.97505479  0.87126826  0.91315584    -0.03700
C2719       C  0.13027514  0.10321492  0.60596351    -0.10300
C2720       C  0.14521405  0.12548689  0.59936997     0.05900
C2721       C  0.15096933  0.13181499  0.56378637    -0.04100
C2722       C  0.13906551  0.11847551  0.53585647    -0.08500
C2723       C  0.12106007  0.09873187  0.54260386     0.05000
C2724       C  0.11841409  0.08973621  0.57791375    -0.03500
Br2725     Br  0.09698756  0.06047906  0.58924230    -0.03200
H2726       H  0.12566076  0.09787278  0.63302233     0.08900
H2727       H  0.14161527  0.12574926  0.50910672     0.06900
Br2728     Br  0.17250790  0.16087669  0.55213078    -0.03700
C2729       C  0.09604861  0.22453988  0.97021502    -0.10300
C2730       C  0.11812447  0.22582633  0.94890476     0.05900
C2731       C  0.12907892  0.20259000  0.93578367    -0.04100
C2732       C  0.11732606  0.17871151  0.94241244    -0.08500
C2733       C  0.09518652  0.17715320  0.96355321     0.05000
C2734       C  0.08499619  0.20031672  0.97861887    -0.03500
Br2735     Br  0.05657563  0.20027286  0.01104808    -0.03200
H2736       H  0.08780664  0.24233688  0.98106798     0.08900
H2737       H  0.12585237  0.16110157  0.93138434     0.06900
Br2738     Br  0.16033942  0.20204646  0.90919024    -0.03700
C2739       C  0.04818613  0.02482322  0.86700412    -0.10300
C2740       C  0.06763509  0.02923420  0.89223348     0.05900
C2741       C  0.09055926  0.01445754  0.88864786    -0.04100
C2742       C  0.09305381  0.99545145  0.86156904    -0.08500
C2743       C  0.07320664  0.99051348  0.83697861     0.05000
C2744       C  0.05061685  0.00609370  0.83995449    -0.03500
Br2745     Br  0.02115246  0.00259678  0.80976820    -0.03200
H2746       H  0.03054141  0.03614644  0.86813908     0.08900
H2747       H  0.11044639  0.98373363  0.86063779     0.06900
Br2748     Br  0.11868856  0.01812435  0.92084359    -0.03700
C2749       C  0.96036098  0.07221976  0.57020964    -0.10300
C2750       C  0.97357693  0.07544989  0.60217567     0.05900
C2751       C  0.99933171  0.06539822  0.60459953    -0.04100
C2752       C  0.01137377  0.05516003  0.57507066    -0.08500
C2753       C  0.00023370  0.05797982  0.54220718     0.05000
C2754       C  0.97371020  0.06346643  0.54002913    -0.03500
Br2755     Br  0.95629496  0.06061270  0.99644358    -0.03200
H2756       H  0.94039267  0.07807877  0.56807562     0.08900
H2757       H  0.03157591  0.04984836  0.57660504     0.06900
Br2758     Br  0.02198568  0.06554534  0.64483188    -0.03700
C2759       C  0.98611461  0.11100359  0.83071048    -0.10300
C2760       C  0.99397583  0.09385385  0.80393776     0.05900
C2761       C  0.01972482  0.08496570  0.80290738    -0.04100
C2762       C  0.03654336  0.09241545  0.82990437    -0.08500
C2763       C  0.02842998  0.11026012  0.85596349     0.05000
C2764       C  0.00352918  0.12113266  0.85404771    -0.03500
Br2765     Br  0.99122970  0.14900665  0.88391977    -0.03200
H2766       H  0.96674180  0.11898547  0.83101054     0.08900
H2767       H  0.05553831  0.08368158  0.83115968     0.06900
Br2768     Br  0.03345258  0.06457506  0.76453677    -0.03700
C2769       C  0.52989815  0.16243627  0.55374475    -0.10300
C2770       C  0.52739241  0.13536797  0.55065760     0.05900
C2771       C  0.54943682  0.11979697  0.54497942    -0.04100
C2772       C  0.57345862  0.13144879  0.54247317    -0.08500
C2773       C  0.57643909  0.15838116  0.54778168     0.05000
C2774       C  0.55412539  0.17405140  0.55327287    -0.03500
Br2775     Br  0.55451341  0.21109648  0.56147866    -0.03200
H2776       H  0.51291758  0.17452495  0.55747088     0.08900
H2777       H  0.59006405  0.11904062  0.53784545     0.06900
Br2778     Br  0.54841620  0.08233880  0.03983371    -0.03700
C2779       C  0.69326499  0.22538283  0.95242040    -0.10300
C2780       C  0.67057590  0.21175966  0.96160467     0.05900
C2781       C  0.64851423  0.21521677  0.94110370    -0.04100
C2782       C  0.64831966  0.23494096  0.91592249    -0.08500
C2783       C  0.66969203  0.25141153  0.91093006     0.05000
C2784       C  0.69307867  0.24495283  0.92681703    -0.03500
Br2785     Br  0.72438061  0.26340204  0.91734866    -0.03200
H2786       H  0.71070137  0.22261541  0.96753232     0.08900
H2787       H  0.63066302  0.23843991  0.90166019     0.06900
Br2788     Br  0.61664578  0.19694907  0.45019260    -0.03700
C2789       C  0.68905627  0.25572484  0.67975976    -0.10300
C2790       C  0.66619160  0.24566090  0.66641356     0.05900
C2791       C  0.64255928  0.25845706  0.67539334    -0.04100
C2792       C  0.64240934  0.27984774  0.69816549    -0.08500
C2793       C  0.66494172  0.28815287  0.71393952     0.05000
C2794       C  0.68852396  0.27631778  0.70396379    -0.03500
Br2795     Br  0.72028850  0.28527839  0.72587999    -0.03200
H2796       H  0.70728847  0.24671690  0.67276639     0.08900
H2797       H  0.62418265  0.28818825  0.70666043     0.06900
Br2798     Br  0.60895095  0.24835405  0.66000082    -0.03700
C2799       C  0.61458871  0.09695379  0.67975121    -0.10300
C2800       C  0.62372753  0.10570508  0.71265067     0.05900
C2801       C  0.64577528  0.12157734  0.71291569    -0.04100
C2802       C  0.65541563  0.13192764  0.68089659    -0.08500
C2803       C  0.64422548  0.12551586  0.64815761     0.05000
C2804       C  0.62499236  0.10629598  0.64779229    -0.03500
Br2805     Br  0.61022674  0.09468126  0.60425965    -0.03200
H2806       H  0.59773138  0.08464692  0.67887626     0.08900
H2807       H  0.67021395  0.14670650  0.68187138     0.06900
Br2808     Br  0.66112271  0.13222914  0.75667613    -0.03700
C2809       C  0.95005234  0.18167640  0.97201230    -0.10300
C2810       C  0.92839559  0.16705797  0.98213237     0.05900
C2811       C  0.93199948  0.14400390  0.00186672    -0.04100
C2812       C  0.95689194  0.13435452  0.00693047    -0.08500
C2813       C  0.97830602  0.14706961  0.99230750     0.05000
C2814       C  0.97492674  0.17186061  0.97685304    -0.03500
Br2815     Br  0.00280288  0.19133691  0.95701625    -0.03200
H2816       H  0.94754382  0.19971979  0.95732015     0.08900
H2817       H  0.95940226  0.11567061  0.01987024     0.06900
Br2818     Br  0.90396154  0.12262220  0.01741301    -0.03700
C2819       C  0.86259546  0.11884218  0.79550982    -0.10300
C2820       C  0.88526565  0.10402182  0.79237142     0.05900
C2821       C  0.89741728  0.09607839  0.82425282    -0.04100
C2822       C  0.88937186  0.10605607  0.85743174    -0.08500
C2823       C  0.86855167  0.12351287  0.86000957     0.05000
C2824       C  0.85411894  0.12822807  0.82879895    -0.03500
Br2825     Br  0.82458224  0.15081908  0.82975472    -0.03200
H2826       H  0.85297396  0.12555917  0.77176360     0.08900
H2827       H  0.90103125  0.10224322  0.88059719     0.06900
Br2828     Br  0.92718118  0.07389027  0.82319787    -0.03700
C2829       C  0.80993469  0.21661074  0.55708476    -0.10300
C2830       C  0.81609628  0.22857933  0.52473893     0.05900
C2831       C  0.80886610  0.25548260  0.51995097    -0.04100
C2832       C  0.79841145  0.26970034  0.54780758    -0.08500
C2833       C  0.79680410  0.25883309  0.58129729     0.05000
C2834       C  0.79966921  0.23155937  0.58501800    -0.03500
Br2835     Br  0.79107391  0.21469824  0.62870927    -0.03200
H2836       H  0.81335814  0.19590036  0.56081458     0.08900
H2837       H  0.79582881  0.29065072  0.54480862     0.06900
Br2838     Br  0.81184940  0.27596249  0.97726008    -0.03700
C2839       C  0.81761684  0.24293280  0.81421640    -0.10300
C2840       C  0.84236894  0.23895204  0.82717437     0.05900
C2841       C  0.86208874  0.25717733  0.81865791    -0.04100
C2842       C  0.85658181  0.27807939  0.79656921    -0.08500
C2843       C  0.83260545  0.28026516  0.78100409     0.05000
C2844       C  0.81267687  0.26312183  0.79086181    -0.03500
Br2845     Br  0.77945272  0.26334421  0.76919716    -0.03200
H2846       H  0.80222254  0.22967635  0.82112830     0.08900
H2847       H  0.87193199  0.29087446  0.78825519     0.06900
Br2848     Br  0.89733326  0.25542654  0.83411041    -0.03700
C2849       C  0.78023323  0.16262193  0.50619421    -0.10300
C2850       C  0.77492814  0.16821358  0.96936612     0.05900
C2851       C  0.74950363  0.17393588  0.95984832    -0.04100
C2852       C  0.73006927  0.17352910  0.98570847    -0.08500
C2853       C  0.73541726  0.16987031  0.52259320     0.05000
C2854       C  0.76076623  0.16395504  0.53235991    -0.03500
Br2855     Br  0.76911119  0.15581431  0.58042159    -0.03200
H2856       H  0.79963307  0.15808862  0.51446910     0.08900
H2857       H  0.71056422  0.17620345  0.97703954     0.06900
Br2858     Br  0.74026466  0.18207192  0.91185968    -0.03700
C2859       C  0.64025325  0.38017200  0.96945178    -0.10300
C2860       C  0.61764641  0.39519841  0.96836808     0.05900
C2861       C  0.60924064  0.40479929  0.93533404    -0.04100
C2862       C  0.62137158  0.39646486  0.90377075    -0.08500
C2863       C  0.64117814  0.37769715  0.90473354     0.05000
C2864       C  0.65223274  0.37178083  0.93798221    -0.03500
Br2865     Br  0.68186712  0.34936415  0.94141417    -0.03200
H2866       H  0.64731124  0.37300728  0.99463926     0.08900
H2867       H  0.61305256  0.40193852  0.87856868     0.06900
Br2868     Br  0.57923566  0.42667529  0.93228809    -0.03700
C2869       C  0.49583816  0.43339517  0.94148620    -0.10300
C2870       C  0.50105364  0.40953329  0.95777829     0.05900
C2871       C  0.48606688  0.38733102  0.94923837    -0.04100
C2872       C  0.46798270  0.38890741  0.92223888    -0.08500
C2873       C  0.46458375  0.41223254  0.90384339     0.05000
C2874       C  0.47782893  0.43491136  0.91460780    -0.03500
Br2875     Br  0.47360621  0.46823631  0.89206582    -0.03200
H2876       H  0.50639903  0.45073832  0.94888907     0.08900
H2877       H  0.45785545  0.37148583  0.91405517     0.06900
Br2878     Br  0.48884689  0.35423555  0.47327036    -0.03700
C2879       C  0.52921690  0.44791482  0.66969164    -0.10300
C2880       C  0.54289249  0.42423360  0.66352181     0.05900
C2881       C  0.53806208  0.40292761  0.68546266    -0.04100
C2882       C  0.51678217  0.40378974  0.70798204    -0.08500
C2883       C  0.50008608  0.42572726  0.70916358     0.05000
C2884       C  0.50746347  0.44862643  0.69175345    -0.03500
Br2885     Br  0.48663309  0.47968409  0.69262799    -0.03200
H2886       H  0.53305143  0.46459585  0.65347768     0.08900
H2887       H  0.51233791  0.38678376  0.72241507     0.06900
Br2888     Br  0.55696567  0.37075139  0.68108663    -0.03700
C2889       C  0.59429910  0.30547689  0.54865181    -0.10300
C2890       C  0.60296506  0.32566264  0.57091566     0.05900
C2891       C  0.62550841  0.32143449  0.59089425    -0.04100
C2892       C  0.63820882  0.29711693  0.58917291    -0.08500
C2893       C  0.62898047  0.27696939  0.56745305     0.05000
C2894       C  0.60718741  0.28152541  0.54659320    -0.03500
Br2895     Br  0.59513703  0.25594058  0.51357115    -0.03200
H2896       H  0.57762367  0.30847613  0.53201398     0.08900
H2897       H  0.65474886  0.29357271  0.60588789     0.06900
Br2898     Br  0.63887453  0.34728406  0.62254070    -0.03700
C2899       C  0.45449933  0.38332363  0.55909397    -0.10300
C2900       C  0.47585491  0.36775736  0.56795031     0.05900
C2901       C  0.47183592  0.34172602  0.57847949    -0.04100
C2902       C  0.44690453  0.33157278  0.57891135    -0.08500
C2903       C  0.42542114  0.34691258  0.56913172     0.05000
C2904       C  0.42955749  0.37332916  0.55954669    -0.03500
Br2905     Br  0.40261916  0.39738267  0.54672930    -0.03200
H2906       H  0.45727858  0.40335673  0.55061764     0.08900
H2907       H  0.44438988  0.31149923  0.58730524     0.06900
Br2908     Br  0.49943183  0.31962121  0.59433606    -0.03700
C2909       C  0.61203561  0.60746273  0.84672621    -0.10300
C2910       C  0.63202164  0.62590099  0.84810033     0.05900
C2911       C  0.64257246  0.63436358  0.81545960    -0.04100
C2912       C  0.63234997  0.62584075  0.78291895    -0.08500
C2913       C  0.61111257  0.60906446  0.78161698     0.05000
C2914       C  0.60158479  0.59917419  0.81407834    -0.03500
Br2915     Br  0.57231052  0.57660319  0.81512912    -0.03200
H2916       H  0.60278812  0.60142782  0.87114808     0.08900
H2917       H  0.63953177  0.63434161  0.75855355     0.06900
Br2918     Br  0.66852756  0.66073057  0.81386351    -0.03700
C2919       C  0.46564105  0.61508773  0.82817924    -0.10300
C2920       C  0.46378212  0.59137672  0.84629691     0.05900
C2921       C  0.47835999  0.56950910  0.83405228    -0.04100
C2922       C  0.49562459  0.57236758  0.80620868    -0.08500
C2923       C  0.49874955  0.59645700  0.78965287     0.05000
C2924       C  0.48280392  0.61780123  0.79988054    -0.03500
Br2925     Br  0.48231241  0.65090041  0.77581180    -0.03200
H2926       H  0.45441751  0.63184099  0.83681547     0.08900
H2927       H  0.50696074  0.55564010  0.79771279     0.06900
Br2928     Br  0.47635355  0.53478299  0.85340487    -0.03700
C2929       C  0.51324684  0.61368977  0.58613092    -0.10300
C2930       C  0.53429071  0.59656798  0.58506272     0.05900
C2931       C  0.53348514  0.57548372  0.56125225    -0.04100
C2932       C  0.51083494  0.56996327  0.54245056    -0.08500
C2933       C  0.48839672  0.58528206  0.54699484     0.05000
C2934       C  0.49029404  0.60799279  0.56871290    -0.03500
Br2935     Br  0.46255926  0.63180610  0.57933249    -0.03200
H2936       H  0.51337765  0.62977454  0.60486154     0.08900
H2937       H  0.51074032  0.55337926  0.52463579     0.06900
Br2938     Br  0.56306488  0.55358892  0.55486478    -0.03700
C2939       C  0.59045256  0.49088388  0.61302460    -0.10300
C2940       C  0.56878196  0.48588875  0.59172947     0.05900
C2941       C  0.54560078  0.49925068  0.60031533    -0.04100
C2942       C  0.54444567  0.51594954  0.62995483    -0.08500
C2943       C  0.56611123  0.52057364  0.65115063     0.05000
C2944       C  0.58932913  0.50801135  0.64199360    -0.03500
Br2945     Br  0.62008958  0.51335952  0.66879113    -0.03200
H2946       H  0.60843439  0.48081626  0.60770529     0.08900
H2947       H  0.52675858  0.52654280  0.63527077     0.06900
Br2948     Br  0.51479686  0.49654359  0.57281076    -0.03700
C2949       C  0.88035466  0.60857990  0.63940005    -0.10300
C2950       C  0.85874458  0.62490089  0.64338063     0.05900
C2951       C  0.84781070  0.62727620  0.67763680    -0.04100
C2952       C  0.86005748  0.61614929  0.70735729    -0.08500
C2953       C  0.88359114  0.60277430  0.70382708     0.05000
C2954       C  0.89285289  0.59782331  0.66912442    -0.03500
Br2955     Br  0.92469720  0.57958491  0.66133863    -0.03200
H2956       H  0.88955408  0.60699343  0.61366565     0.08900
H2957       H  0.85280791  0.62075891  0.73359174     0.06900
Br2958     Br  0.81864667  0.64967273  0.68569924    -0.03700
C2959       C  0.01807019  0.61124928  0.70040640    -0.10300
C2960       C  0.00897010  0.58642670  0.71011665     0.05900
C2961       C  0.02305021  0.56411146  0.70033994    -0.04100
C2962       C  0.04362268  0.56674049  0.67667539    -0.08500
C2963       C  0.04987571  0.59139299  0.66248103     0.05000
C2964       C  0.03910279  0.61381068  0.67777090    -0.03500
Br2965     Br  0.05003454  0.64808528  0.66398055    -0.03200
H2966       H  0.00857706  0.62876621  0.71001246     0.08900
H2967       H  0.05216632  0.54925483  0.66536792     0.06900
Br2968     Br  0.01278819  0.52980655  0.71486835    -0.03700
C2969       C  0.95329802  0.57217891  0.92643308    -0.10300
C2970       C  0.94914708  0.59654475  0.90975480     0.05900
C2971       C  0.96272875  0.61823015  0.92207510    -0.04100
C2972       C  0.98313436  0.61469656  0.94562091    -0.08500
C2973       C  0.98918528  0.58983580  0.95931868     0.05000
C2974       C  0.97300990  0.56875596  0.95131538    -0.03500
Br2975     Br  0.97899499  0.53439662  0.47058927    -0.03200
H2976       H  0.94320502  0.55509486  0.91697381     0.08900
H2977       H  0.99446782  0.63148717  0.95307484     0.06900
Br2978     Br  0.95563133  0.65246279  0.90411206    -0.03700
C2979       C  0.85735052  0.38667370  0.53256527    -0.10300
C2980       C  0.88130209  0.39833335  0.53841369     0.05900
C2981       C  0.89040554  0.39986486  0.57355332    -0.04100
C2982       C  0.87689137  0.38780455  0.60139356    -0.08500
C2983       C  0.85454638  0.37332964  0.59480259     0.05000
C2984       C  0.84411321  0.37406548  0.56024433    -0.03500
Br2985     Br  0.81302968  0.35599470  0.54876129    -0.03200
H2986       H  0.85020065  0.38493107  0.50575174     0.08900
H2987       H  0.88546740  0.38732758  0.62750135     0.06900
Br2988     Br  0.92283274  0.41566916  0.58408216    -0.03700
C2989       C  0.01424861  0.39170155  0.53746224    -0.10300
C2990       C  0.00455291  0.41674111  0.52957319     0.05900
C2991       C  0.01479505  0.43867649  0.54629124    -0.04100
C2992       C  0.03188769  0.43502270  0.57435548    -0.08500
C2993       C  0.03879863  0.40966743  0.58534114     0.05000
C2994       C  0.03154835  0.38810953  0.56504347    -0.03500
Br2995     Br  0.04228855  0.35331299  0.57736444    -0.03200
H2996       H  0.00720118  0.37469026  0.52359546     0.08900
H2997       H  0.03739895  0.45173440  0.59006428     0.06900
Br2998     Br  0.00337699  0.47351345  0.03451206    -0.03700
C2999       C  0.94559463  0.43481729  0.81445307    -0.10300
C3000       C  0.93971649  0.41138627  0.83235857     0.05900
C3001       C  0.94972494  0.38775857  0.81966387    -0.04100
C3002       C  0.96858473  0.38830239  0.79360250    -0.08500
C3003       C  0.97798043  0.41213443  0.77990818     0.05000
C3004       C  0.96496676  0.43545841  0.78858100    -0.03500
Br3005     Br  0.97491431  0.46885837  0.77018102    -0.03200
H3006       H  0.93787192  0.45317485  0.82430126     0.08900
H3007       H  0.97733454  0.36986083  0.78613488     0.06900
Br3008     Br  0.94337363  0.35499152  0.84304332    -0.03700
C3009       C  0.88085411  0.32197862  0.92057985    -0.10300
C3010       C  0.90320066  0.32516908  0.94060461     0.05900
C3011       C  0.91466106  0.30290152  0.95656233    -0.04100
C3012       C  0.90449990  0.27816823  0.95049234    -0.08500
C3013       C  0.88247377  0.27487945  0.92983933     0.05000
C3014       C  0.87024517  0.29729619  0.91534920    -0.03500
Br3015     Br  0.83945652  0.29640565  0.88740928    -0.03200
H3016       H  0.87159282  0.33881617  0.90862720     0.08900
H3017       H  0.91365828  0.26137378  0.96271592     0.06900
Br3018     Br  0.94304654  0.30431048  0.98901343    -0.03700
C3019       C  0.95184164  0.49434568  0.88967069    -0.10300
C3020       C  0.92776634  0.48551593  0.90154649     0.05900
C3021       C  0.90573173  0.49517177  0.88383928    -0.04100
C3022       C  0.90818530  0.51313419  0.85561196    -0.08500
C3023       C  0.93238181  0.52164784  0.84333569     0.05000
C3024       C  0.95442065  0.51171416  0.86108162    -0.03500
Br3025     Br  0.98911119  0.52126110  0.84984830    -0.03200
H3026       H  0.96918288  0.48698048  0.90202153     0.08900
H3027       H  0.89089869  0.52088860  0.84353476     0.06900
Br3028     Br  0.87161864  0.48551080  0.89786668    -0.03700
C3029       C  0.02229274  0.34010905  0.92920251    -0.10300
C3030       C  0.02015839  0.36739187  0.93138153     0.05900
C3031       C  0.04253032  0.38234416  0.93542861    -0.04100
C3032       C  0.06636624  0.37000082  0.93832362    -0.08500
C3033       C  0.06881319  0.34265129  0.93657609     0.05000
C3034       C  0.04634244  0.32762764  0.93090684    -0.03500
Br3035     Br  0.04649809  0.29022351  0.92557481    -0.03200
H3036       H  0.00509031  0.32844268  0.92663089     0.08900
H3037       H  0.08316708  0.38211424  0.94175170     0.06900
Br3038     Br  0.04175472  0.41969129  0.93984010    -0.03700
C3039       C  0.05273872  0.67299683  0.82478001    -0.10300
C3040       C  0.07338891  0.66145772  0.80610925     0.05900
C3041       C  0.06843264  0.64033378  0.78309156    -0.04100
C3042       C  0.04384753  0.62979336  0.78182199    -0.08500
C3043       C  0.02363065  0.64072663  0.80147328     0.05000
C3044       C  0.02790374  0.66301061  0.82211095    -0.03500
Br3045     Br  0.00055122  0.68058658  0.84644787    -0.03200
H3046       H  0.05592640  0.68954108  0.84208224     0.08900
H3047       H  0.04048680  0.61287559  0.76533215     0.06900
Br3048     Br  0.09367078  0.62554074  0.75146972    -0.03700
C3049       C  0.15102406  0.62656873  0.93583324    -0.10300
C3050       C  0.14043873  0.62494127  0.90168026     0.05900
C3051       C  0.11958566  0.60786629  0.89654651    -0.04100
C3052       C  0.10765147  0.59574176  0.92559256    -0.08500
C3053       C  0.11639612  0.59970396  0.96027626     0.05000
C3054       C  0.13956668  0.61352729  0.96479037    -0.03500
Br3055     Br  0.15449722  0.61758375  0.51067923    -0.03200
H3056       H  0.16702028  0.63954337  0.94053305     0.08900
H3057       H  0.08981797  0.58538304  0.92141941     0.06900
Br3058     Br  0.10413790  0.60343542  0.85103594    -0.03700
C3059       C  0.08491648  0.80574059  0.80798038    -0.10300
C3060       C  0.10126271  0.82759013  0.80742444     0.05900
C3061       C  0.12810568  0.82326195  0.81056870    -0.04100
C3062       C  0.13784787  0.79772618  0.81197118    -0.08500
C3063       C  0.12145438  0.77613565  0.81235545     0.05000
C3064       C  0.09471969  0.78030118  0.81130054    -0.03500
Br3065     Br  0.07080532  0.75192916  0.81360848    -0.03200
H3066       H  0.06431134  0.80840998  0.80609029     0.08900
H3067       H  0.15841718  0.79472245  0.81421021     0.06900
Br3068     Br  0.15295529  0.85072456  0.81403639    -0.03700
C3069       C  0.36162264  0.61008636  0.58911001    -0.10300
C3070       C  0.34504828  0.63161682  0.58549012     0.05900
C3071       C  0.33579104  0.63776993  0.55134854    -0.04100
C3072       C  0.34603349  0.62516056  0.52126494    -0.08500
C3073       C  0.36566462  0.60641817  0.52468551     0.05000
C3074       C  0.37176832  0.59741823  0.55909281    -0.03500
Br3075     Br  0.39761762  0.57107344  0.56630575    -0.03200
H3076       H  0.36917832  0.60515943  0.61499696     0.08900
H3077       H  0.34115891  0.63254879  0.49522012     0.06900
Br3078     Br  0.31192186  0.66596795  0.54440329    -0.03700
C3079       C  0.42748391  0.63770376  0.66710255    -0.10300
C3080       C  0.42410298  0.66468289  0.67090509     0.05900
C3081       C  0.44559686  0.68039403  0.67806950    -0.04100
C3082       C  0.47000454  0.66884939  0.68096090    -0.08500
C3083       C  0.47346158  0.64162937  0.67738343     0.05000
C3084       C  0.45157985  0.62602589  0.67035678    -0.03500
Br3085     Br  0.45198604  0.58861876  0.66459850    -0.03200
H3086       H  0.41111132  0.62545698  0.66126192     0.08900
H3087       H  0.48619060  0.68118883  0.68725282     0.06900
Br3088     Br  0.44245198  0.71712537  0.68752094    -0.03700
C3089       C  0.26029398  0.65754390  0.73123392    -0.10300
C3090       C  0.26590038  0.68220282  0.71628216     0.05900
C3091       C  0.25338515  0.70436929  0.73093764    -0.04100
C3092       C  0.23725938  0.70173760  0.76042799    -0.08500
C3093       C  0.23148824  0.67725942  0.77524285     0.05000
C3094       C  0.24285531  0.65488758  0.75971714    -0.03500
Br3095     Br  0.23626236  0.62048742  0.77763051    -0.03200
H3096       H  0.26997886  0.64024285  0.72120084     0.08900
H3097       H  0.22832350  0.71923861  0.77098901     0.06900
Br3098     Br  0.25762762  0.73941634  0.71381355    -0.03700
C3099       C  0.36585419  0.80147923  0.68522777    -0.10300
C3100       C  0.37878075  0.78180305  0.66619381     0.05900
C3101       C  0.40201276  0.78826608  0.64840684    -0.04100
C3102       C  0.41254932  0.81325650  0.65245860    -0.08500
C3103       C  0.39989395  0.83237167  0.67264372     0.05000
C3104       C  0.37600070  0.82654131  0.68798367    -0.03500
Br3105     Br  0.35630263  0.85230919  0.71270738    -0.03200
H3106       H  0.34752509  0.79751798  0.69778812     0.08900
H3107       H  0.43116367  0.81748740  0.64088840     0.06900
Br3108     Br  0.42110613  0.76418889  0.61925030    -0.03700
C3109       C  0.07255236  0.86773874  0.57404915    -0.10300
C3110       C  0.07621129  0.84150724  0.56461147     0.05900
C3111       C  0.05463142  0.82636231  0.55566948    -0.04100
C3112       C  0.03024068  0.83806805  0.55423883    -0.08500
C3113       C  0.02658502  0.86465901  0.56266085     0.05000
C3114       C  0.04813538  0.87923085  0.57404998    -0.03500
Br3115     Br  0.04623885  0.91454846  0.59141591    -0.03200
H3116       H  0.08879723  0.87925633  0.58260005     0.08900
H3117       H  0.01414673  0.82633041  0.54576833     0.06900
Br3118     Br  0.05730185  0.78996905  0.54365737    -0.03700
C3119       C  0.13419170  0.89285113  0.64789183    -0.10300
C3120       C  0.15022701  0.87105259  0.65356283     0.05900
C3121       C  0.15717167  0.86491632  0.68869770    -0.04100
C3122       C  0.14681995  0.87923939  0.71723995    -0.08500
C3123       C  0.12848686  0.89911250  0.71186167     0.05000
C3124       C  0.12302234  0.90648294  0.67658907    -0.03500
Br3125     Br  0.09715795  0.93223878  0.66650046    -0.03200
H3126       H  0.12790014  0.89737325  0.62124030     0.08900
H3127       H  0.15059531  0.87253976  0.74386696     0.06900
Br3128     Br  0.17767836  0.83460349  0.69923596    -0.03700
C3129       C  0.14519613  0.74122061  0.67673708    -0.10300
C3130       C  0.16881761  0.74319812  0.65858699     0.05900
C3131       C  0.18701901  0.72285235  0.66231025    -0.04100
C3132       C  0.18285855  0.70331800  0.68772183    -0.08500
C3133       C  0.16021926  0.70304107  0.70821821     0.05000
C3134       C  0.14061569  0.72105395  0.70069558    -0.03500
Br3135     Br  0.10874537  0.72114331  0.72658534    -0.03200
H3136       H  0.13016818  0.75563467  0.67264932     0.08900
H3137       H  0.19827466  0.68969462  0.69372546     0.06900
Br3138     Br  0.21854139  0.72178376  0.63575904    -0.03700
C3139       C  0.14332125  0.76109872  0.92200537    -0.10300
C3140       C  0.16787287  0.75343387  0.90994802     0.05900
C3141       C  0.18895965  0.76968245  0.91690416    -0.04100
C3142       C  0.18566873  0.79128895  0.93918379    -0.08500
C3143       C  0.16171861  0.79655690  0.95531674     0.05000
C3144       C  0.14009656  0.78280654  0.94395788    -0.03500
Br3145     Br  0.10645343  0.79061617  0.96212909    -0.03200
H3146       H  0.12652831  0.74993090  0.91478357     0.08900
H3147       H  0.20257496  0.80169501  0.94797661     0.06900
Br3148     Br  0.22305764  0.76143387  0.90065506    -0.03700
C3149       C  0.12162254  0.67670251  0.55489348    -0.10300
C3150       C  0.09490735  0.67495600  0.55863567     0.05900
C3151       C  0.08059381  0.69764507  0.56716848    -0.04100
C3152       C  0.09303692  0.72170343  0.56956159    -0.08500
C3153       C  0.11959418  0.72355956  0.56364069     0.05000
C3154       C  0.13404080  0.70065508  0.55728072    -0.03500
Br3155     Br  0.17089806  0.70032462  0.55438878    -0.03200
H3156       H  0.13295290  0.65938832  0.54970917     0.08900
H3157       H  0.08196079  0.73901217  0.57627925     0.06900
Br3158     Br  0.04452824  0.69676846  0.57832637    -0.03700
C3159       C  0.45279535  0.83451742  0.93604285    -0.10300
C3160       C  0.43134933  0.85141896  0.93917421     0.05900
C3161       C  0.43578842  0.87850169  0.94364724    -0.04100
C3162       C  0.46087395  0.88804195  0.94263585    -0.08500
C3163       C  0.48199524  0.87116694  0.93928904     0.05000
C3164       C  0.47791647  0.84412855  0.93678985    -0.03500
Br3165     Br  0.50599633  0.81978602  0.93322417    -0.03200
H3166       H  0.45009079  0.81367412  0.93283494     0.08900
H3167       H  0.46399059  0.90883414  0.94577347     0.06900
Br3168     Br  0.40914382  0.90393604  0.95208001    -0.03700
C3169       C  0.38682613  0.89855407  0.85106614    -0.10300
C3170       C  0.36393086  0.88462307  0.84703429     0.05900
C3171       C  0.35161235  0.88530308  0.81391510    -0.04100
C3172       C  0.36439330  0.89596981  0.78427048    -0.08500
C3173       C  0.38972526  0.90506195  0.78730658     0.05000
C3174       C  0.39959684  0.90899344  0.82170370    -0.03500
Br3175     Br  0.43237659  0.92511912  0.82950373    -0.03200
H3176       H  0.39646336  0.89852340  0.87640031     0.08900
H3177       H  0.35567283  0.89455900  0.75847692     0.06900
Br3178     Br  0.31905812  0.86876168  0.80752736    -0.03700
C3179       C  0.32472582  0.73796991  0.82643505    -0.10300
C3180       C  0.34236211  0.75868764  0.82538781     0.05900
C3181       C  0.36288124  0.75732796  0.80040798    -0.04100
C3182       C  0.36475917  0.73614697  0.77713444    -0.08500
C3183       C  0.34634406  0.71639461  0.77716115     0.05000
C3184       C  0.32663612  0.71704491  0.80272531    -0.03500
Br3185     Br  0.30075346  0.69056344  0.80406520    -0.03200
H3186       H  0.30913429  0.73812808  0.84554234     0.08900
H3187       H  0.37929142  0.73646863  0.75644381     0.06900
Br3188     Br  0.38881116  0.78362181  0.79455416    -0.03700
C3189       C  0.31907834  0.80192712  0.55323350    -0.10300
C3190       C  0.34250101  0.80194108  0.53454135     0.05900
C3191       C  0.36086873  0.78263270  0.54177444    -0.04100
C3192       C  0.35409064  0.76124353  0.56236452    -0.08500
C3193       C  0.32974790  0.75969717  0.57862323     0.05000
C3194       C  0.31288315  0.78130992  0.57608180    -0.03500
Br3195     Br  0.28064492  0.78294557  0.60092879    -0.03200
H3196       H  0.30462035  0.81664462  0.54742822     0.08900
H3197       H  0.36814776  0.74577152  0.56559124     0.06900
Br3198     Br  0.39394276  0.78254563  0.51897446    -0.03700
C3199       C  0.26607725  0.80054751  0.47980048    -0.10300
C3200       C  0.27189530  0.82497230  0.96476473     0.05900
C3201       C  0.25921411  0.84708285  0.97888247    -0.04100
C3202       C  0.24116675  0.84442527  0.00663519    -0.08500
C3203       C  0.23534891  0.82004646  0.52195094     0.05000
C3204       C  0.24841593  0.79783252  0.50792050    -0.03500
Br3205     Br  0.24283547  0.76271615  0.52407625    -0.03200
H3206       H  0.27601415  0.78324177  0.47029701     0.08900
H3207       H  0.23110830  0.86174945  0.01585228     0.06900
Br3208     Br  0.26495886  0.88127239  0.95976465    -0.03700
C3209       C  0.41329219  0.72949489  0.93841280    -0.10300
C3210       C  0.38741815  0.73255246  0.92902304     0.05900
C3211       C  0.37225446  0.71034666  0.92335319    -0.04100
C3212       C  0.38289774  0.68559562  0.92721021    -0.08500
C3213       C  0.40856769  0.68209676  0.93761968     0.05000
C3214       C  0.42393259  0.70446738  0.94330129    -0.03500
Br3215     Br  0.45929968  0.70252042  0.95743613    -0.03200
H3216       H  0.42506319  0.74660217  0.94262909     0.08900
H3217       H  0.37056657  0.66892352  0.92289098     0.06900
Br3218     Br  0.33682065  0.71229564  0.90977221    -0.03700
C3219       C  0.55201736  0.81958592  0.66446825    -0.10300
C3220       C  0.57077844  0.82367602  0.69068334     0.05900
C3221       C  0.56307081  0.83397598  0.72381239    -0.04100
C3222       C  0.53764262  0.84176920  0.72905529    -0.08500
C3223       C  0.51967464  0.84025593  0.70164782     0.05000
C3224       C  0.52663241  0.82821585  0.66957211    -0.03500
Br3225     Br  0.50301951  0.82641358  0.63079017    -0.03200
H3226       H  0.55753648  0.81170733  0.63888125     0.08900
H3227       H  0.53241078  0.85136173  0.75369996     0.06900
Br3228     Br  0.58630067  0.83985750  0.76237805    -0.03700
C3229       C  0.68300060  0.76351214  0.78952695    -0.10300
C3230       C  0.66020378  0.77337540  0.77432377     0.05900
C3231       C  0.63655369  0.76315715  0.78524836    -0.04100
C3232       C  0.63594743  0.74437689  0.81189512    -0.08500
C3233       C  0.65866188  0.73490646  0.82794569     0.05000
C3234       C  0.68249018  0.74435765  0.81585703    -0.03500
Br3235     Br  0.71499682  0.73137557  0.83247914    -0.03200
H3236       H  0.70151405  0.77030164  0.78017361     0.08900
H3237       H  0.61728095  0.73733450  0.82018106     0.16500
Br3238     Br  0.60470746  0.77178565  0.76254652    -0.03700
C3239       C  0.68022595  0.71339275  0.55550473    -0.10300
C3240       C  0.65646525  0.71209730  0.53800962     0.05900
C3241       C  0.63924057  0.73308722  0.54221491    -0.04100
C3242       C  0.64686880  0.75576066  0.55988436    -0.08500
C3243       C  0.67115071  0.75760538  0.57626181     0.05000
C3244       C  0.68749040  0.73545054  0.57496398    -0.03500
Br3245     Br  0.72098423  0.73445481  0.59611637    -0.03200
H3246       H  0.69446747  0.69835685  0.55114857     0.08900
H3247       H  0.63339188  0.77192945  0.56101524     0.06900
Br3248     Br  0.60598030  0.73266176  0.52066568    -0.03700
C3249       C  0.65451573  0.88580707  0.57781987    -0.10300
C3250       C  0.63904978  0.88250528  0.60827823     0.05900
C3251       C  0.61459566  0.89442641  0.60869231    -0.04100
C3252       C  0.60459583  0.90557856  0.57771357    -0.08500
C3253       C  0.61862125  0.90552664  0.54570707     0.05000
C3254       C  0.64467517  0.89789623  0.54696797    -0.03500
Br3255     Br  0.66639316  0.90074276  0.00581643    -0.03200
H3256       H  0.67338713  0.87678089  0.57679913     0.08900
H3257       H  0.58456103  0.91139440  0.57758297     0.06900
Br3258     Br  0.59216890  0.89136257  0.64901015    -0.03700
C3259       C  0.61264710  0.71597430  0.63551805    -0.10300
C3260       C  0.63272615  0.72237064  0.65897923     0.05900
C3261       C  0.63981420  0.70394121  0.68526181    -0.04100
C3262       C  0.62569004  0.68095232  0.68905624    -0.08500
C3263       C  0.60455537  0.67585311  0.66735195     0.05000
C3264       C  0.59860356  0.69298282  0.63958337    -0.03500
Br3265     Br  0.57190245  0.68538022  0.60628748    -0.03200
H3266       H  0.60730445  0.72920076  0.61434077     0.08900
H3267       H  0.63059988  0.66740927  0.71008206     0.06900
Br3268     Br  0.66741233  0.70886023  0.71823553    -0.03700
C3269       C  0.95500631  0.83620527  0.80581381    -0.10300
C3270       C  0.93457490  0.85091102  0.79137865     0.05900
C3271       C  0.93933209  0.87625813  0.77824634    -0.04100
C3272       C  0.96346098  0.88718665  0.78284870    -0.08500
C3273       C  0.98325996  0.87285480  0.79871655     0.05000
C3274       C  0.97938619  0.84691125  0.80897528    -0.03500
Br3275     Br  0.00671880  0.82574536  0.82767769    -0.03200
H3276       H  0.95195134  0.81655848  0.81561584     0.08900
H3277       H  0.96711456  0.90666399  0.77272459     0.06900
Br3278     Br  0.91443919  0.89677552  0.75278009    -0.03700
C3279       C  0.85599700  0.87852581  0.92466115    -0.10300
C3280       C  0.86999085  0.88245883  0.89311296     0.05900
C3281       C  0.89234304  0.89789468  0.89477828    -0.04100
C3282       C  0.90171298  0.90663054  0.92751243    -0.08500
C3283       C  0.88915827  0.90043328  0.95938876     0.05000
C3284       C  0.86535646  0.88745797  0.95754976    -0.03500
Br3285     Br  0.84671530  0.87895305  0.49949435    -0.03200
H3286       H  0.83914046  0.86621490  0.92428690     0.08900
H3287       H  0.92024907  0.91615434  0.92832861     0.06900
Br3288     Br  0.91278561  0.90456102  0.85354098    -0.03700
C3289       C  0.81860625  0.79336801  0.69146070    -0.10300
C3290       C  0.84287684  0.79604572  0.70719553     0.05900
C3291       C  0.86150776  0.77668798  0.70109847    -0.04100
C3292       C  0.85482283  0.75381018  0.68337057    -0.08500
C3293       C  0.82992733  0.75027829  0.66946390     0.05000
C3294       C  0.81197352  0.77086658  0.67280225    -0.03500
Br3295     Br  0.77709794  0.76846292  0.65677705    -0.03200
H3296       H  0.80354717  0.80729581  0.69743014     0.08900
H3297       H  0.86935693  0.73872844  0.68064895     0.06900
Br3298     Br  0.89529145  0.77923328  0.72089803    -0.03700
C3299       C  0.86093619  0.73366199  0.95349164    -0.10300
C3300       C  0.83758663  0.73082447  0.97116761     0.05900
C3301       C  0.81611263  0.74641109  0.96037962    -0.04100
C3302       C  0.81879650  0.76448694  0.93305294    -0.08500
C3303       C  0.84241223  0.76798012  0.91640826     0.05000
C3304       C  0.86364811  0.75203868  0.92653496    -0.03500
Br3305     Br  0.89694302  0.75286065  0.90440578    -0.03200
H3306       H  0.87746302  0.72211636  0.96142546     0.08900
H3307       H  0.80234522  0.77609206  0.92493764     0.06900
Br3308     Br  0.78220507  0.74463021  0.48090848    -0.03700
C3309       C  0.75060229  0.83386405  0.78537527    -0.10300
C3310       C  0.77470485  0.83984239  0.77117550     0.05900
C3311       C  0.77581181  0.84611035  0.73423084    -0.04100
C3312       C  0.75439048  0.84195315  0.71213064    -0.08500
C3313       C  0.73045964  0.83512537  0.72629563     0.05000
C3314       C  0.72852315  0.83327326  0.76395526    -0.03500
Br3315     Br  0.69653814  0.83110859  0.78907579    -0.03200
H3316       H  0.74877095  0.83033454  0.81357800     0.08900
H3317       H  0.75622269  0.84507288  0.68384127     0.06900
Br3318     Br  0.80527101  0.86144149  0.71147440    -0.03700
C3319       C  0.90666953  0.72939294  0.78999974    -0.10300
C3320       C  0.88280100  0.73191385  0.80691365     0.05900
C3321       C  0.87040896  0.70932300  0.81943683    -0.04100
C3322       C  0.88199856  0.68475358  0.81483365    -0.08500
C3323       C  0.90592321  0.68201619  0.79757077     0.05000
C3324       C  0.91805640  0.70490894  0.78448186    -0.03500
Br3325     Br  0.94968979  0.70508420  0.75784707    -0.03200
H3326       H  0.91652579  0.74669990  0.78073607     0.08900
H3327       H  0.87225208  0.66771970  0.82518636     0.06900
Br3328     Br  0.83871126  0.71107166  0.84555941    -0.03700
loop_ 
_geom_bond_atom_site_label_1 
_geom_bond_atom_site_label_2 
_geom_bond_distance 
_geom_bond_site_symmetry_2 
_ccdc_geom_bond_type 
O1           C16   1.252       .  A
O1           Al9   1.851       .  S
C2           O12   1.283       .  A
C2            O3   1.267       .  A
C2         C1626   1.457       .  S
O3           Al5   1.874       .  S
O4            C6   1.257       .  A
O4           Al5   1.908       .  S
Al5          O13   1.941       .  S
Al5          O15   1.910       .  S
Al5          O14   1.786       .  S
C6           O19   1.252       .  A
C6         C1656   1.476       .  S
O7           C17   1.241       .  A
O7           Al9   1.870       .  S
O8           C21   1.285       .  A
O8          Al18   1.955       .  S
Al9          O22   1.934       .  S
Al9          O19   1.877       .  S
Al9          O14   1.770       .  S
O10          C17   1.248       .  A
O10         Al18   1.903       .  S
O11          C20   1.246       .  A
O11         Al18   1.889       .  S
O12         Al18   1.939       .  S
O13          C20   1.267       .  A
O14         Al18   1.791       .  S
O15          C16   1.269       .  A
C16        C1639   1.468       .  S
C17        C1606   1.468       .  S
C20        C1646   1.511       .  S
C21          O22   1.275       .  A
C21        C1616   1.491       .  S
O23          C38   1.253       .  A
O23         Al31   1.870       .  S
C24          O34   1.273       .  A
C24          O25   1.257       .  A
C24        C1566   1.469       .  S
O25         Al27   1.870       .  S
O26          C28   1.260       .  A
O26         Al27   1.905       .  S
Al27         O35   1.949       .  S
Al27         O37   1.925       .  S
Al27         O36   1.808       .  S
C28          O41   1.259       .  A
C28        C1596   1.486       .  S
O29          C39   1.250       .  A
O29         Al31   1.890       .  S
O30          C43   1.279       .  A
O30         Al40   1.957       .  S
Al31         O44   1.899       .  S
Al31         O41   1.893       .  S
Al31         O36   1.784       .  S
O32          C39   1.254       .  A
O32         Al40   1.905       .  S
O33          C42   1.259       .  A
O33         Al40   1.917       .  S
O34         Al40   1.930       .  S
O35          C42   1.275       .  A
O36         Al40   1.784       .  S
O37          C38   1.260       .  A
C38        C1579   1.499       .  S
C39        C1556   1.479       .  S
C42        C1649   1.510       .  S
C43          O44   1.265       .  A
C43        C1586   1.486       .  S
O45          C60   1.266       .  A
O45         Al53   1.910       .  S
C46        O1720   1.259       .  A
C46        O1711   1.267       .  A
C46        C1526   1.448   1_556  S
O47        C1710   1.267       .  A
O47         Al49   1.915       .  S
O48          C50   1.264       .  A
O48         Al49   1.936       .  S
Al49         O57   1.945       .  S
Al49         O59   1.934       .  S
Al49         O58   1.792       .  S
C50          O63   1.256       .  A
C50        C1496   1.488       .  S
O51          C61   1.260       .  A
O51         Al53   1.916       .  S
O52          C65   1.265       .  A
O52         Al62   1.925       .  S
Al53         O66   1.882       .  S
Al53         O63   1.882       .  S
Al53         O58   1.775       .  S
O54          C61   1.256       .  A
O54         Al62   1.884       .  S
O55          C64   1.268       .  A
O55         Al62   1.906       .  S
O56        C1710   1.259       .  A
O56         Al62   1.881       .  S
O57          C64   1.267       .  A
O58         Al62   1.781       .  S
O59          C60   1.272       .  A
C60        C1506   1.478       .  S
C61        C1546   1.464       .  S
C64        C1536   1.503       .  S
C65          O66   1.256       .  A
C65        C1516   1.488       .  S
O67          C82   1.263       .  A
O67         Al75   1.905       .  S
C68        O1742   1.255       .  A
C68        O1733   1.269       .  A
C68        C1479   1.458       .  S
O69        C1732   1.269   1_554  A
O69         Al71   1.930       .  S
O70          C72   1.264       .  A
O70         Al71   1.930       .  S
Al71         O79   1.939       .  S
Al71         O81   1.943       .  S
Al71         O80   1.791       .  S
C72          O85   1.254       .  A
C72        C1446   1.477       .  S
O73          C83   1.258       .  A
O73         Al75   1.903       .  S
O74          C87   1.260       .  A
O74         Al84   1.921       .  S
Al75         O88   1.877       .  S
Al75         O85   1.883       .  S
Al75         O80   1.778       .  S
O76          C83   1.259       .  A
O76         Al84   1.893       .  S
O77          C86   1.271       .  A
O77         Al84   1.919       .  S
O78        C1732   1.255   1_554  A
O78         Al84   1.863       .  S
O79          C86   1.269       .  A
O80         Al84   1.790       .  S
O81          C82   1.273       .  A
C82        C1456   1.487       .  S
C83        C1489   1.466       .  S
C86        C1539   1.511       .  S
C87          O88   1.258       .  A
C87        C1466   1.479       .  S
O89         C104   1.256       .  A
O89         Al97   1.879       .  S
C90         O100   1.269       .  A
C90          O91   1.253       .  A
C90        C1519   1.458       .  S
O91         Al93   1.876       .  S
O92          C94   1.266       .  A
O92         Al93   1.906       .  S
Al93        O101   1.919       .  S
Al93        O103   1.906       .  S
Al93        O102   1.790       .  S
C94         O107   1.259       .  A
C94        C1436   1.485       .  S
O95         C105   1.255       .  A
O95         Al97   1.893       .  S
O96         C109   1.273       .  A
O96        Al106   1.943       .  S
Al97        O110   1.903       .  S
Al97        O107   1.909       .  S
Al97        O102   1.773       .  S
O98         C105   1.260       .  A
O98        Al106   1.905       .  S
O99         C108   1.266       .  A
O99        Al106   1.927       .  S
O100       Al106   1.938       .  S
O101        C108   1.270       .  A
O102       Al106   1.784       .  S
O103        C104   1.255       .  A
C104       C1529   1.474       .  S
C105       C1416   1.474       .  S
C108       C1426   1.497       .  S
C109        O110   1.264       .  A
C109       C1406   1.484       .  S
O111        C126   1.259       .  A
O111       Al119   1.883       .  S
C112        O122   1.267       .  A
C112        O113   1.256       .  A
C112       C1469   1.457       .  S
O113       Al115   1.883       .  S
O114        C116   1.262       .  A
O114       Al115   1.899       .  S
Al115       O123   1.903       .  S
Al115       O125   1.901       .  S
Al115       O124   1.787       .  S
C116        O129   1.260       .  A
C116       C1399   1.472       .  S
O117        C127   1.254       .  A
O117       Al119   1.880       .  S
O118        C131   1.274       .  A
O118       Al128   1.944       .  S
Al119       O132   1.920       .  S
Al119       O129   1.908       .  S
Al119       O124   1.777       .  S
O120        C127   1.259       .  A
O120       Al128   1.908       .  S
O121        C130   1.265       .  A
O121       Al128   1.941       .  S
O122       Al128   1.924       .  S
O123        C130   1.266       .  A
O124       Al128   1.796       .  S
O125        C126   1.257       .  A
C126       C1476   1.471       .  S
C127       C1376   1.477       .  S
C130       C1429   1.495       .  S
C131        O132   1.267       .  A
C131       C1386   1.491       .  S
O133       C1812   1.264       .  A
O133      Al1805   1.907   1_554  S
C134        O144   1.259       .  A
C134        O135   1.268       .  A
C134       C1336   1.454       .  S
O135       Al137   1.913       .  S
O136        C138   1.266       .  A
O136       Al137   1.937       .  S
Al137       O145   1.947       .  S
Al137       O147   1.941       .  S
Al137       O146   1.796       .  S
C138        O151   1.251       .  A
C138       C1346   1.475       .  S
O139        C149   1.257       .  A
O139       Al141   1.900       .  S
O140       C1817   1.260       .  A
O140       Al150   1.917       .  S
Al141       O151   1.863       .  S
Al141      O1797   1.907       .  S
Al141      O1818   1.863       .  S
Al141       O146   1.771       .  S
O142        C149   1.261       .  A
O142       Al150   1.909       .  S
O143        C152   1.266       .  A
O143       Al150   1.902       .  S
O144       Al150   1.878       .  S
O145        C152   1.267       .  A
O146       Al150   1.785       .  S
O147        C148   1.273       .  A
C148       O1797   1.263       .  A
C148       C2980   1.486       .  S
C149       C1366   1.470   1_655  S
C152       C1356   1.507       .  S
C153        O154   1.255       .  A
C153       O1804   1.260   1_554  A
C153       C1326   1.460   1_655  S
O154      Al1805   1.864   1_554  S
O155        C170   1.261       .  A
O155       Al163   1.896       .  S
C156        O166   1.251       .  A
C156        O157   1.272       .  A
C156       C1306   1.468       .  S
O157       Al159   1.952       .  S
O158        C160   1.265       .  A
O158       Al159   1.934       .  S
Al159       O167   1.946       .  S
Al159       O169   1.962       .  S
Al159       O168   1.796       .  S
C160        O173   1.253       .  A
C160       C1659   1.492       .  S
O161        C171   1.257       .  A
O161       Al163   1.900       .  S
O162        C175   1.256       .  A
O162       Al172   1.899       .  S
Al163       O176   1.880       .  S
Al163       O173   1.878       .  S
Al163       O168   1.784       .  S
O164        C171   1.258       .  A
O164       Al172   1.899       .  S
O165        C174   1.268       .  A
O165       Al172   1.912       .  S
O166       Al172   1.856       .  S
O167        C174   1.269       .  A
O168       Al172   1.790       .  S
O169        C170   1.276       .  A
C170       C1289   1.496       .  S
C171       C1379   1.460   1_655  S
C174       C1359   1.509       .  S
C175        O176   1.257       .  A
C175       C1296   1.462   1_655  S
O177        C192   1.280       .  A
O177       Al185   1.938       .  S
C178        O188   1.269       .  A
C178        O179   1.290       .  A
C178       C1266   1.470       .  S
O179       Al181   1.965       .  S
O180        C182   1.241       .  A
O180       Al181   1.881       .  S
Al181       O189   1.874       .  S
Al181       O191   1.965       .  S
Al181       O190   1.778       .  S
C182        O195   1.246       .  A
C182       C1599   1.464       .  S
O183        C193   1.261       .  A
O183       Al185   1.907       .  S
O184        C197   1.264       .  A
O184       Al194   1.889       .  S
Al185       O198   1.877       .  S
Al185       O195   1.902       .  S
Al185       O190   1.776       .  S
O186        C193   1.253       .  A
O186       Al194   1.883       .  S
O187        C196   1.254       .  A
O187       Al194   1.909       .  S
O188       Al194   1.879       .  S
O189        C196   1.242       .  A
O190       Al194   1.782       .  S
O191        C192   1.291       .  A
C192       C1249   1.500       .  S
C193       C1419   1.487       .  S
C196       C1279   1.486       .  S
C197        O198   1.256       .  A
C197       C1259   1.468       .  S
O199        C214   1.277       .  A
O199      Al1871   1.939       .  S
C200        O210   1.263       .  A
C200        O201   1.286       .  A
C200       C1216   1.470       .  S
O201       Al203   1.948       .  S
O202        C204   1.252       .  A
O202       Al203   1.930       .  S
Al203       O211   1.888       .  S
Al203       O213   1.931       .  S
Al203       O212   1.803       .  S
C204        O217   1.244       .  A
C204       C1226   1.486       .  S
O205        C215   1.259       .  A
O205       Al207   1.901       .  S
O206       C1883   1.258   1_554  A
O206       Al216   1.878       .  S
Al207       O217   1.872       .  S
Al207      O1863   1.939       .  S
Al207      O1884   1.858   1_554  S
Al207       O212   1.780       .  S
O208        C215   1.257       .  A
O208       Al216   1.889       .  S
O209        C218   1.257       .  A
O209       Al216   1.909       .  S
O210       Al216   1.857       .  S
O211        C218   1.250       .  A
O212       Al216   1.789       .  S
O213       C1878   1.278   1_554  A
C214       O1877   1.277       .  A
C214       C1196   1.485       .  S
C215       C1236   1.481       .  S
C218       C1276   1.501       .  S
C219        O220   1.251       .  A
C219       O1870   1.258       .  A
C219       C1206   1.459       .  S
O220      Al1871   1.859       .  S
O221        C236   1.244       .  A
O221       Al229   1.851       .  S
C222       O1896   1.284       .  A
C222       O1887   1.241       .  A
C222       C1166   1.487   1_556  S
O223       C1886   1.242       .  A
O223       Al225   1.793       .  S
O224        C226   1.268       .  A
O224       Al225   1.930       .  S
Al225       O233   1.917       .  S
Al225       O235   1.887       .  S
Al225       O234   1.779       .  S
C226        O239   1.272       .  A
C226       C1349   1.476       .  S
O227        C237   1.243       .  A
O227       Al229   1.858       .  S
O228        C241   1.294       .  A
O228       Al238   2.027       .  S
Al229       O242   1.851       .  S
Al229       O239   1.899       .  S
Al229       O234   1.789       .  S
O230        C237   1.250       .  A
O230       Al238   1.913       .  S
O231        C240   1.251       .  A
O231       Al238   1.873       .  S
O232       C1886   1.284       .  A
O232       Al238   1.998       .  S
O233        C240   1.260       .  A
O234       Al238   1.774       .  S
O235        C236   1.260       .  A
C236       C1176   1.458       .  S
C237       C1146   1.474       .  S
C240       C1186   1.496       .  S
C241        O242   1.261       .  A
C241       C1159   1.499       .  S
O243        C258   1.252       .  A
O243       Al251   1.854       .  S
C244       O1918   1.281       .  A
C244       O1909   1.267       .  A
C244       C1116   1.463       .  S
O245       C1908   1.267   1_554  A
O245       Al247   1.866       .  S
O246        C248   1.256       .  A
O246       Al247   1.912       .  S
Al247       O255   1.947       .  S
Al247       O257   1.913       .  S
Al247       O256   1.793       .  S
C248        O261   1.252       .  A
C248       C1229   1.472       .  S
O249        C259   1.238       .  A
O249       Al251   1.871       .  S
O250        C263   1.281       .  A
O250       Al260   1.944       .  S
Al251       O264   1.931       .  S
Al251       O261   1.880       .  S
Al251       O256   1.766       .  S
O252        C259   1.254       .  A
O252       Al260   1.922       .  S
O253        C262   1.247       .  A
O253       Al260   1.880       .  S
O254       C1908   1.282   1_554  A
O254       Al260   1.925       .  S
O255        C262   1.268       .  A
O256       Al260   1.794       .  S
O257        C258   1.270       .  A
C258       C1126   1.477       .  S
C259       C1109   1.481       .  S
C262       C1189   1.502       .  S
C263        O264   1.274       .  A
C263       C1139   1.487       .  S
O265       C1944   1.259       .  A
O265      Al1937   1.883       .  S
C266        O276   1.250       .  A
C266        O267   1.269       .  A
C266       C1099   1.453       .  S
O267       Al269   1.959       .  S
O268        C270   1.260       .  A
O268       Al269   1.883       .  S
Al269       O277   1.942       .  S
Al269       O279   1.969       .  S
Al269       O278   1.789       .  S
C270        O283   1.263       .  A
C270       C1069   1.477       .  S
O271        C281   1.259       .  A
O271       Al273   1.921       .  S
O272       C1949   1.259       .  A
O272       Al282   1.872       .  S
Al273       O283   1.925       .  S
Al273      O1929   1.884       .  S
Al273      O1950   1.908       .  S
Al273       O278   1.768       .  S
O274        C281   1.260       .  A
O274       Al282   1.917       .  S
O275        C284   1.266       .  A
O275       Al282   1.927       .  S
O276       Al282   1.819       .  S
O277        C284   1.273       .  A
O278       Al282   1.766       .  S
O279        C280   1.275       .  A
C280       O1929   1.259       .  A
C280       C2723   1.494       .  S
C281       C1149   1.475   1_455  S
C284       C1076   1.514       .  S
C285        O286   1.274       .  A
C285       O1936   1.260   1_554  A
C285       C1089   1.449       .  S
O286      Al1937   1.910       .  S
O287        C302   1.263       .  A
O287       Al295   1.890       .  S
C288        O298   1.256       .  A
C288        O289   1.272       .  A
C288       C1049   1.464       .  S
O289       Al291   1.944       .  S
O290        C292   1.259       .  A
O290       Al291   1.923       .  S
Al291       O299   1.962       .  S
Al291       O301   1.963       .  S
Al291       O300   1.788       .  S
C292        O305   1.256       .  A
C292       C1396   1.490       .  S
O293        C303   1.255       .  A
O293       Al295   1.874       .  S
O294        C307   1.257       .  A
O294       Al304   1.901       .  S
Al295       O308   1.887       .  S
Al295       O305   1.895       .  S
Al295       O300   1.776       .  S
O296        C303   1.259       .  A
O296       Al304   1.885       .  S
O297        C306   1.265       .  A
O297       Al304   1.906       .  S
O298       Al304   1.891       .  S
O299        C306   1.270       .  A
O300       Al304   1.791       .  S
O301        C302   1.281       .  A
C302       C1459   1.487       .  S
C303       C1609   1.443   1_455  S
C306       C1079   1.515       .  S
C307        O308   1.260       .  A
C307       C1039   1.477       .  S
O309        C324   1.252       .  A
O309       Al317   1.862       .  S
C310       O1984   1.269   1_554  A
C310       O1975   1.258   1_554  A
C310       C1019   1.453       .  S
O311       C1974   1.258       .  A
O311       Al313   1.892       .  S
O312        C314   1.258       .  A
O312       Al313   1.895       .  S
Al313       O321   1.905       .  S
Al313       O323   1.932       .  S
Al313       O322   1.785       .  S
C314        O327   1.263       .  A
C314       C1066   1.468       .  S
O315        C325   1.255       .  A
O315       Al317   1.882       .  S
O316        C329   1.280       .  A
O316       Al326   1.959       .  S
Al317       O330   1.900       .  S
Al317       O327   1.928       .  S
Al317       O322   1.766       .  S
O318        C325   1.267       .  A
O318       Al326   1.930       .  S
O319        C328   1.274       .  A
O319       Al326   1.969       .  S
O320       C1974   1.269       .  A
O320       Al326   1.928       .  S
O321        C328   1.266       .  A
O322       Al326   1.783       .  S
O323        C324   1.263       .  A
C324       C1026   1.472       .  S
C325       C1369   1.486       .  S
C328        C996   1.515       .  S
C329        O330   1.262       .  A
C329       C1006   1.489       .  S
O331        C346   1.253       .  A
O331       Al339   1.874       .  S
C332       O2006   1.273       .  A
C332       O1997   1.259       .  A
C332        C966   1.463       .  S
O333       C1996   1.259       .  A
O333       Al335   1.892       .  S
O334        C336   1.260       .  A
O334       Al335   1.896       .  S
Al335       O343   1.924       .  S
Al335       O345   1.929       .  S
Al335       O344   1.792       .  S
C336        O349   1.257       .  A
C336        C986   1.458       .  S
O337        C347   1.252       .  A
O337       Al339   1.883       .  S
O338        C351   1.275       .  A
O338       Al348   1.941       .  S
Al339       O352   1.899       .  S
Al339       O349   1.895       .  S
Al339       O344   1.771       .  S
O340        C347   1.259       .  A
O340       Al348   1.929       .  S
O341        C350   1.264       .  A
O341       Al348   1.930       .  S
O342       C1996   1.273       .  A
O342       Al348   1.941       .  S
O343        C350   1.272       .  A
O344       Al348   1.790       .  S
O345        C346   1.264       .  A
C346        C976   1.491       .  S
C347       C1239   1.492       .  S
C350        C999   1.496       .  S
C351        O352   1.265       .  A
C351        C956   1.478       .  S
O353        C368   1.262       .  A
O353      Al2025   1.890       .  S
C354        O364   1.263       .  A
C354        O355   1.255       .  A
C354       C1299   1.454       .  S
O355       Al357   1.861       .  S
O356        C358   1.259       .  A
O356       Al357   1.905       .  S
Al357       O365   1.917       .  S
Al357       O367   1.922       .  S
Al357       O366   1.782       .  S
C358        O371   1.257       .  A
C358        C946   1.482   1_455  S
O359        C369   1.255       .  A
O359       Al361   1.874       .  S
O360        C373   1.272   1_554  A
O360       Al370   1.946       .  S
Al361       O371   1.905       .  S
Al361      O2017   1.890   1_554  S
Al361      O2038   1.900   1_554  S
Al361       O366   1.784       .  S
O362        C369   1.264       .  A
O362       Al370   1.921       .  S
O363        C372   1.269       .  A
O363       Al370   1.948       .  S
O364       Al370   1.917       .  S
O365        C372   1.270       .  A
O366       Al370   1.804       .  S
O367       C2032   1.263   1_554  A
C368       O2031   1.263       .  A
C368       C1309   1.478   1_455  S
C369       C1486   1.471       .  S
C372        C939   1.516       .  S
C373       O2038   1.261       .  A
C373       C3053   1.489       .  S
O374       C2037   1.261       .  A
O374      Al2025   1.900       .  S
O375        C390   1.258       .  A
O375       Al383   1.866       .  S
C376        O386   1.264       .  A
C376        O377   1.257       .  A
C376       C1329   1.452       .  S
O377       Al379   1.860       .  S
O378        C380   1.254       .  A
O378       Al379   1.888   1_655  S
Al379       O387   1.883       .  S
Al379       O389   1.913       .  S
Al379       O388   1.790       .  S
C380        O393   1.266   1_655  A
C380        C926   1.481       .  S
O381        C391   1.253       .  A
O381       Al383   1.876       .  S
O382        C395   1.274       .  A
O382       Al392   1.962       .  S
Al383       O396   1.905       .  S
Al383       O393   1.941       .  S
Al383       O388   1.792       .  S
O384        C391   1.257       .  A
O384       Al392   1.903       .  S
O385        C394   1.271       .  A
O385       Al392   1.943       .  S
O386       Al392   1.927       .  S
O387        C394   1.257       .  A
O388       Al392   1.811       .  S
O389        C390   1.266       .  A
C390       C1339   1.478   1_455  S
C391        C919   1.466       .  S
C394        C936   1.516       .  S
C395        O396   1.263       .  A
C395       C1009   1.501       .  S
O397        C412   1.255       .  A
O397      Al2069   1.872       .  S
C398        O408   1.282       .  A
C398        O399   1.269       .  A
C398       C1036   1.453       .  S
O399       Al401   1.878       .  S
O400        C402   1.254   1_655  A
O400       Al401   1.888       .  S
Al401       O409   1.921       .  S
Al401       O411   1.920       .  S
Al401       O410   1.784       .  S
C402        O415   1.259   1_455  A
C402       C1449   1.490       .  S
O403        C413   1.247       .  A
O403       Al405   1.887       .  S
O404        C417   1.286   1_554  A
O404       Al414   1.949       .  S
Al405       O415   1.902       .  S
Al405      O2061   1.871   1_554  S
Al405      O2082   1.927   1_554  S
Al405       O410   1.776       .  S
O406        C413   1.248       .  A
O406       Al414   1.909       .  S
O407        C416   1.250       .  A
O407       Al414   1.908       .  S
O408       Al414   1.932       .  S
O409        C416   1.260       .  A
O410       Al414   1.797       .  S
O411       C2076   1.268   1_554  A
C412       O2075   1.268       .  A
C412       C1046   1.488   1_655  S
C413        C896   1.486       .  S
C416        C906   1.521       .  S
C417       O2082   1.277       .  A
C417       C3283   1.488       .  S
O418       C2081   1.277       .  A
O418      Al2069   1.927       .  S
O419        C434   1.269       .  A
O419       Al427   1.869       .  S
C420        O430   1.290       .  A
C420        O421   1.253       .  A
C420       C1086   1.479       .  S
O421       Al423   1.840       .  S
O422        C424   1.251       .  A
O422       Al423   1.893       .  S
Al423       O431   1.917       .  S
Al423       O433   1.897       .  S
Al423       O432   1.770       .  S
C424        O437   1.261       .  A
C424        C886   1.469   1_655  S
O425        C435   1.249       .  A
O425       Al427   1.862       .  S
O426        C439   1.285       .  A
O426       Al436   2.007       .  S
Al427       O440   1.859       .  S
Al427       O437   1.934       .  S
Al427       O432   1.775       .  S
O428        C435   1.260       .  A
O428       Al436   1.930       .  S
O429        C438   1.262       .  A
O429       Al436   1.931       .  S
O430       Al436   2.007       .  S
O431        C438   1.254       .  A
O432       Al436   1.789       .  S
O433        C434   1.272       .  A
C434       C1096   1.456       .  S
C435        C876   1.480       .  S
C438        C909   1.524       .  S
C439        O440   1.256       .  A
C439       C1156   1.502       .  S
O441        C456   1.262       .  A
O441       Al449   1.879       .  S
C442       O2116   1.248       .  A
C442       O2107   1.278       .  A
C442       C1636   1.475       .  S
O443       C2106   1.278       .  A
O443       Al445   1.950       .  S
O444        C446   1.251       .  A
O444       Al445   1.897       .  S
Al445       O453   1.915       .  S
Al445       O455   1.971       .  S
Al445       O454   1.786       .  S
C446        O459   1.248       .  A
C446        C949   1.468       .  S
O447        C457   1.259       .  A
O447       Al449   1.897       .  S
O448        C461   1.255       .  A
O448       Al458   1.907       .  S
Al449       O462   1.861       .  S
Al449       O459   1.881       .  S
Al449       O454   1.788       .  S
O450        C457   1.262       .  A
O450       Al458   1.912       .  S
O451        C460   1.276       .  A
O451       Al458   1.953       .  S
O452       C2106   1.248       .  A
O452       Al458   1.843       .  S
O453        C460   1.259       .  A
O454       Al458   1.812       .  S
O455        C456   1.282       .  A
C456       C1286   1.489       .  S
C457        C899   1.468       .  S
C460        C866   1.512       .  S
C461        O462   1.248       .  A
C461       C1629   1.484       .  S
O463        C478   1.272       .  A
O463       Al471   1.909       .  S
C464       O2138   1.267   1_554  A
C464       O2129   1.290   1_554  A
C464       C1576   1.468       .  S
O465       C2128   1.290       .  A
O465       Al467   1.968       .  S
O466        C468   1.242       .  A
O466       Al467   1.881       .  S
Al467       O475   1.885       .  S
Al467       O477   1.986       .  S
Al467       O476   1.776       .  S
C468        O481   1.242       .  A
C468        C849   1.468       .  S
O469        C479   1.251       .  A
O469       Al471   1.869       .  S
O470        C483   1.264       .  A
O470       Al480   1.904       .  S
Al471       O484   1.861       .  S
Al471       O481   1.881       .  S
Al471       O476   1.775       .  S
O472        C479   1.261       .  A
O472       Al480   1.916       .  S
O473        C482   1.261       .  A
O473       Al480   1.933       .  S
O474       C2128   1.267       .  A
O474       Al480   1.867       .  S
O475        C482   1.243       .  A
O476       Al480   1.790       .  S
O477        C478   1.294       .  A
C478       C1246   1.500       .  S
C479        C859   1.477       .  S
C482        C869   1.509       .  S
C483        O484   1.256       .  A
C483       C1569   1.479       .  S
O485        C500   1.260       .  A
O485       Al493   1.859       .  S
C486        O496   1.254       .  A
C486        O487   1.270       .  A
C486        C839   1.463       .  S
O487       Al489   1.950       .  S
O488        C490   1.259       .  A
O488       Al489   1.922       .  S
Al489       O497   1.917       .  S
Al489       O499   1.982       .  S
Al489       O498   1.793       .  S
C490        O503   1.252       .  A
C490       C1439   1.469       .  S
O491        C501   1.265       .  A
O491       Al493   1.922       .  S
O492        C505   1.273       .  A
O492       Al502   1.926       .  S
Al493       O506   1.890       .  S
Al493       O503   1.886       .  S
Al493       O498   1.777       .  S
O494        C501   1.261       .  A
O494       Al502   1.902       .  S
O495        C504   1.267       .  A
O495       Al502   1.944       .  S
O496       Al502   1.844       .  S
O497        C504   1.265       .  A
O498       Al502   1.776       .  S
O499        C500   1.279       .  A
C500       C1509   1.490       .  S
C501       C1559   1.462       .  S
C504        C816   1.522       .  S
C505        O506   1.258       .  A
C505        C826   1.487       .  S
O507       C2186   1.266       .  A
O507      Al2179   1.918       .  S
C508        O518   1.259       .  A
C508        O509   1.271       .  A
C508        C806   1.456       .  S
O509       Al511   1.926       .  S
O510        C512   1.262       .  A
O510       Al511   1.931       .  S
Al511       O519   1.942       .  S
Al511       O521   1.953       .  S
Al511       O520   1.792       .  S
C512        O525   1.254       .  A
C512        C989   1.482       .  S
O513        C523   1.257       .  A
O513       Al515   1.902       .  S
O514       C2191   1.268   1_554  A
O514       Al524   1.928       .  S
Al515       O525   1.880       .  S
Al515      O2171   1.919   1_554  S
Al515      O2192   1.881   1_554  S
Al515       O520   1.778       .  S
O516        C523   1.255       .  A
O516       Al524   1.886       .  S
O517        C526   1.268       .  A
O517       Al524   1.916       .  S
O518       Al524   1.879       .  S
O519        C526   1.266       .  A
O520       Al524   1.785       .  S
O521        C522   1.277   1_554  A
C522       O2171   1.266       .  A
C522       C2453   1.491       .  S
C523       C1106   1.464       .  S
C526        C819   1.523       .  S
C527        O528   1.258       .  A
C527       O2178   1.268       .  A
C527        C799   1.493       .  S
O528      Al2179   1.882       .  S
O529        C544   1.264       .  A
O529       Al537   1.906       .  S
C530        O540   1.259       .  A
C530        O531   1.272       .  A
C530        C979   1.459       .  S
O531       Al533   1.937       .  S
O532        C534   1.260       .  A
O532       Al533   1.924       .  S
Al533       O541   1.930       .  S
Al533       O543   1.956       .  S
Al533       O542   1.789       .  S
C534        O547   1.253       .  A
C534        C756   1.457       .  S
O535        C545   1.255       .  A
O535       Al537   1.895       .  S
O536        C549   1.267       .  A
O536       Al546   1.934       .  S
Al537       O550   1.874       .  S
Al537       O547   1.881       .  S
Al537       O542   1.773       .  S
O538        C545   1.257       .  A
O538       Al546   1.892       .  S
O539        C548   1.270       .  A
O539       Al546   1.921       .  S
O540       Al546   1.885       .  S
O541        C548   1.265       .  A
O542       Al546   1.784       .  S
O543        C544   1.278       .  A
C544        C786   1.488       .  S
C545        C776   1.456       .  S
C548        C769   1.511       .  S
C549        O550   1.256       .  A
C549        C969   1.492       .  S
O551        C566   1.262       .  A
O551       Al559   1.898       .  S
C552        O562   1.255       .  A
C552        O553   1.267       .  A
C552       C1029   1.450       .  S
O553       Al555   1.920       .  S
O554        C556   1.264       .  A
O554       Al555   1.934       .  S
Al555       O563   1.942       .  S
Al555       O565   1.949       .  S
Al555       O564   1.791       .  S
C556        O569   1.251       .  A
C556        C889   1.480       .  S
O557        C567   1.258       .  A
O557       Al559   1.901       .  S
O558        C571   1.261       .  A
O558       Al568   1.921       .  S
Al559       O572   1.873       .  S
Al559       O569   1.867       .  S
Al559       O564   1.772       .  S
O560        C567   1.261       .  A
O560       Al568   1.899       .  S
O561        C570   1.270       .  A
O561       Al568   1.910       .  S
O562       Al568   1.872       .  S
O563        C570   1.268       .  A
O564       Al568   1.796       .  S
O565        C566   1.273       .  A
C566       C1056   1.488       .  S
C567        C916   1.467       .  S
C570        C766   1.499       .  S
C571        O572   1.252       .  A
C571       C1016   1.487       .  S
O573        C588   1.258       .  A
O573      Al2245   1.869   1_554  S
C574        O584   1.272       .  A
C574        O575   1.256       .  A
C574        C829   1.459       .  S
O575       Al577   1.880       .  S
O576        C578   1.261       .  A
O576       Al577   1.903       .  S
Al577       O585   1.898       .  S
Al577       O587   1.893       .  S
Al577       O586   1.787       .  S
C578        O591   1.258       .  A
C578       C1499   1.468       .  S
O579        C589   1.257       .  A
O579       Al581   1.887       .  S
O580        C593   1.278       .  A
O580       Al590   1.960       .  S
Al581       O591   1.901       .  S
Al581      O2237   1.869       .  S
Al581      O2258   1.898       .  S
Al581       O586   1.766       .  S
O582        C589   1.262       .  A
O582       Al590   1.928       .  S
O583        C592   1.266       .  A
O583       Al590   1.947       .  S
O584       Al590   1.942       .  S
O585        C592   1.263       .  A
O586       Al590   1.791       .  S
O587       C2252   1.254       .  A
C588       O2251   1.254   1_554  A
C588        C836   1.449       .  S
C589        C856   1.471       .  S
C592        C746   1.490       .  S
C593       O2258   1.265       .  A
C593       C3253   1.495       .  S
O594       C2257   1.265       .  A
O594      Al2245   1.899   1_554  S
O595        C610   1.257       .  A
O595       Al603   1.879       .  S
C596        O606   1.271       .  A
C596        O597   1.257       .  A
C596        C796   1.462       .  S
O597       Al599   1.889       .  S
O598        C600   1.259       .  A
O598       Al599   1.887       .  S
Al599       O607   1.904       .  S
Al599       O609   1.913       .  S
Al599       O608   1.781       .  S
C600        O613   1.264       .  A
C600        C759   1.482       .  S
O601        C611   1.254       .  A
O601       Al603   1.891       .  S
O602        C615   1.276       .  A
O602       Al612   1.947       .  S
Al603       O616   1.912       .  S
Al603       O613   1.915       .  S
Al603       O608   1.769       .  S
O604        C611   1.263       .  A
O604       Al612   1.931       .  S
O605        C614   1.271       .  A
O605       Al612   1.958       .  S
O606       Al612   1.942       .  S
O607        C614   1.265       .  A
O608       Al612   1.785       .  S
O609        C610   1.258       .  A
C610        C809   1.472       .  S
C611        C736   1.468       .  S
C614        C749   1.504       .  S
C615        O616   1.267       .  A
C615       C1136   1.488       .  S
O617        C632   1.262       .  A
O617       Al625   1.884       .  S
C618        O628   1.247       .  A
C618        O619   1.267       .  A
C618       C1179   1.436       .  S
O619       Al621   1.937       .  S
O620        C622   1.261       .  A
O620       Al621   1.923       .  S
Al621       O629   1.933       .  S
Al621       O631   1.978       .  S
Al621       O630   1.790       .  S
C622        O635   1.261       .  A
C622        C929   1.495       .  S
O623        C633   1.261       .  A
O623       Al625   1.898       .  S
O624        C637   1.258       .  A
O624       Al634   1.887       .  S
Al625       O638   1.894       .  S
Al625       O635   1.914       .  S
Al625       O630   1.771       .  S
O626        C633   1.270       .  A
O626       Al634   1.954       .  S
O627        C636   1.266       .  A
O627       Al634   1.930       .  S
O628       Al634   1.807       .  S
O629        C636   1.269       .  A
O630       Al634   1.783       .  S
O631        C632   1.278       .  A
C632       C1319   1.493       .  S
C633        C879   1.501       .  S
C636        C729   1.498       .  S
C637        O638   1.263       .  A
C637       C1169   1.454       .  S
O639        C654   1.266       .  A
O639       Al647   1.861       .  S
C640        O650   1.245       .  A
C640        O641   1.269       .  A
C640       C1129   1.456       .  S
O641       Al643   1.945       .  S
O642        C644   1.257       .  A
O642       Al643   1.939       .  S
Al643       O651   1.914       .  S
Al643       O653   2.006       .  S
Al643       O652   1.783       .  S
C644        O657   1.244       .  A
C644        C716   1.483       .  S
O645        C655   1.270       .  A
O645       Al647   1.897       .  S
O646        C659   1.252       .  A
O646       Al656   1.892       .  S
Al647       O660   1.849       .  S
Al647       O657   1.874       .  S
Al647       O652   1.787       .  S
O648        C655   1.276       .  A
O648       Al656   1.942       .  S
O649        C658   1.264       .  A
O649       Al656   1.907       .  S
O650       Al656   1.811       .  S
O651        C658   1.264       .  A
O652       Al656   1.783       .  S
O653        C654   1.289       .  A
C654       C1199   1.490       .  S
C655        C739   1.472       .  S
C658        C726   1.499       .  S
C659        O660   1.245       .  A
C659       C1119   1.463       .  S
O661        C676   1.251       .  A
O661      Al2333   1.867   1_554  S
C662        O672   1.279       .  A
C662        O663   1.256       .  A
C662       C1256   1.473       .  S
O663       Al665   1.855       .  S
O664        C666   1.258       .  A
O664       Al665   1.895       .  S
Al665       O673   1.956       .  S
Al665       O675   1.936       .  S
Al665       O674   1.803       .  S
C666        O679   1.255       .  A
C666        C846   1.473       .  S
O667        C677   1.249       .  A
O667       Al669   1.894       .  S
O668        C681   1.278       .  A
O668       Al678   1.954       .  S
Al669       O679   1.875       .  S
Al669      O2325   1.868       .  S
Al669      O2346   1.890       .  S
Al669       O674   1.780       .  S
O670        C677   1.252       .  A
O670       Al678   1.887       .  S
O671        C680   1.249       .  A
O671       Al678   1.880       .  S
O672       Al678   1.942       .  S
O673        C680   1.276       .  A
O674       Al678   1.788       .  S
O675       C2340   1.266       .  A
C676       O2339   1.266       .  A
C676       C1269   1.506       .  S
C677       C1549   1.481       .  S
C680        C706   1.505       .  S
C681       O2346   1.264       .  A
C681       C3073   1.481       .  S
O682       C2345   1.264   1_554  A
O682      Al2333   1.891   1_554  S
O683        C698   1.248       .  A
O683       Al691   1.865       .  S
C684        O694   1.264       .  A
C684        O685   1.244       .  A
C684       C1209   1.452       .  S
O685       Al687   1.812       .  S
O686        C688   1.275       .  A
O686       Al687   1.933       .  S
Al687       O695   1.936       .  S
Al687       O697   1.910       .  S
Al687       O696   1.787       .  S
C688        O701   1.271       .  A
C688        C719   1.474       .  S
O689        C699   1.247       .  A
O689       Al691   1.892       .  S
O690        C703   1.286       .  A
O690       Al700   1.984       .  S
Al691       O704   1.872       .  S
Al691       O701   1.906       .  S
Al691       O696   1.793       .  S
O692        C699   1.245       .  A
O692       Al700   1.883       .  S
O693        C702   1.258       .  A
O693       Al700   1.893       .  S
O694       Al700   1.922       .  S
O695        C702   1.270       .  A
O696       Al700   1.783       .  S
O697        C698   1.259       .  A
C698       C1219   1.481       .  S
C699        C779   1.468       .  S
C702        C709   1.499       .  S
C703        O704   1.268       .  A
C703        C959   1.485       .  S
C705        C706   1.396       .  A
C705        C710   1.408       .  A
C705        H712   1.083       .  S
C706        C707   1.432       .  A
C707        C708   1.406       .  A
C707       Br714   1.920       .  S
C708        C709   1.394       .  A
C708        H713   1.084       .  S
C709        C710   1.426       .  A
C710       Br711   1.912       .  S
C715        C716   1.407       .  A
C715        C720   1.409       .  A
C715        H722   1.083       .  S
C716        C717   1.414       .  A
C717        C718   1.390       .  A
C717       Br724   1.911       .  S
C718        C719   1.395       .  A
C718        H723   1.085       .  S
C719        C720   1.413       .  A
C720       Br721   1.920       .  S
C725        C726   1.416       .  A
C725        C730   1.414       .  A
C725        H732   1.083       .  S
C726        C727   1.409       .  A
C727        C728   1.405       .  A
C727       Br734   1.921       .  S
C728        C729   1.408       .  A
C728        H733   1.081       .  S
C729        C730   1.407       .  A
C730       Br731   1.914       .  S
C735        C736   1.401       .  A
C735        C740   1.403       .  A
C735        H742   1.084       .  S
C736        C737   1.406       .  A
C737        C738   1.394       .  A
C737       Br744   1.913       .  S
C738        C739   1.401       .  A
C738        H743   1.084       .  S
C739        C740   1.413       .  A
C740       Br741   1.919       .  S
C745        C746   1.403       .  A
C745        C750   1.398   1_565  A
C745        H752   1.082       .  S
C746        C747   1.407       .  A
C747        C748   1.412   1_565  A
C747       Br754   1.916       .  S
C748        C749   1.415       .  A
C748        H753   1.083       .  S
C749        C750   1.420       .  A
C750       Br751   1.923       .  S
C755        C756   1.396       .  A
C755        C760   1.393       .  A
C755        H762   1.082       .  S
C756        C757   1.399       .  A
C757        C758   1.396       .  A
C757       Br764   1.918       .  S
C758        C759   1.412       .  A
C758        H763   1.083       .  S
C759        C760   1.419       .  A
C760       Br761   1.923       .  S
C765        C766   1.406       .  A
C765        C770   1.407       .  A
C765        H772   1.083       .  S
C766        C767   1.408       .  A
C767        C768   1.412       .  A
C767       Br774   1.917       .  S
C768        C769   1.416       .  A
C768        H773   1.083       .  S
C769        C770   1.420       .  A
C770       Br771   1.918       .  S
C775        C776   1.398       .  A
C775        C780   1.392       .  A
C775        H782   1.084       .  S
C776        C777   1.403       .  A
C777        C778   1.398       .  A
C777       Br784   1.914       .  S
C778        C779   1.406       .  A
C778        H783   1.084       .  S
C779        C780   1.410       .  A
C780       Br781   1.920       .  S
C785        C786   1.406       .  A
C785        C790   1.407       .  A
C785        H792   1.084       .  S
C786        C787   1.411       .  A
C787        C788   1.410       .  A
C787       Br794   1.916       .  S
C788        C789   1.407       .  A
C788        H793   1.083       .  S
C789       C2186   1.491       .  S
C789        C790   1.412       .  A
C790       Br791   1.917       .  S
C795        C796   1.397       .  A
C795        C800   1.401       .  A
C795        H802   1.085       .  S
C796        C797   1.404       .  A
C797        C798   1.398       .  A
C797       Br804   1.914       .  S
C798        C799   1.406       .  A
C798        H803   1.083       .  S
C799        C800   1.426       .  A
C800      Br2465   1.923       .  S
Br801      C2464   1.924       .  S
C805        C806   1.408       .  A
C805        C810   1.401       .  A
C805        H812   1.084       .  S
C806        C807   1.400       .  A
C807        C808   1.392       .  A
C807       Br814   1.920       .  S
C808        C809   1.408       .  A
C808        H813   1.083       .  S
C809        C810   1.407       .  A
C810       Br811   1.919       .  S
C815        C816   1.412       .  A
C815        C820   1.411   1_565  A
C815        H822   1.080       .  S
C816        C817   1.416       .  A
C817        C818   1.416   1_565  A
C817       Br824   1.917       .  S
C818        C819   1.416       .  A
C818        H823   1.083       .  S
C819        C820   1.420       .  A
C820       Br821   1.920       .  S
C825        C826   1.406       .  A
C825        C830   1.403       .  A
C825        H832   1.083       .  S
C826        C827   1.423       .  A
C827        C828   1.395       .  A
C827       Br834   1.927       .  S
C828        C829   1.397       .  A
C828        H833   1.085       .  S
C829        C830   1.408       .  A
C830       Br831   1.916       .  S
C835        C836   1.407       .  A
C835        C840   1.400       .  A
C835        H842   1.082       .  S
C836        C837   1.394       .  A
C837        C838   1.381       .  A
C837       Br844   1.921       .  S
C838        C839   1.409       .  A
C838        H843   1.084       .  S
C839        C840   1.402       .  A
C840       Br841   1.916       .  S
C845        C846   1.406       .  A
C845        C850   1.392       .  A
C845        H852   1.083       .  S
C846        C847   1.412       .  A
C847        C848   1.395       .  A
C847       Br854   1.922       .  S
C848        C849   1.404       .  A
C848        H853   1.084       .  S
C849        C850   1.406       .  A
C850       Br851   1.919       .  S
C855        C856   1.399       .  A
C855        C860   1.396       .  A
C855        H862   1.083       .  S
C856        C857   1.408       .  A
C857        C858   1.396       .  A
C857       Br864   1.912       .  S
C858        C859   1.403       .  A
C858        H863   1.084       .  S
C859        C860   1.417       .  A
C860       Br861   1.922       .  S
C865        C866   1.401       .  A
C865        C870   1.414       .  A
C865        H872   1.083       .  S
C866       C2531   1.429   1_554  A
C867        C868   1.407       .  A
C867       C2530   1.429       .  A
C867       Br874   1.916       .  S
C868        C869   1.396       .  A
C868        H873   1.084       .  S
C869       C2534   1.429       .  A
C870       C2533   1.429   1_554  A
C870       Br871   1.923       .  S
C875        C876   1.402       .  A
C875        C880   1.401       .  A
C875        H882   1.084       .  S
C876        C877   1.406       .  A
C877        C878   1.405       .  A
C877       Br884   1.919       .  S
C878        C879   1.412       .  A
C878        H883   1.080       .  S
C879        C880   1.420       .  A
C880       Br881   1.923       .  S
C885        C886   1.405       .  A
C885        C890   1.395       .  A
C885        H892   1.085       .  S
C886        C887   1.403       .  A
C887        C888   1.401       .  A
C887       Br894   1.918       .  S
C888        C889   1.412       .  A
C888        H893   1.083       .  S
C889        C890   1.409       .  A
C890       Br891   1.921       .  S
C895        C896   1.406       .  A
C895        C900   1.394       .  A
C895        H902   1.083       .  S
C896        C897   1.418       .  A
C897        C898   1.405       .  A
C897       Br904   1.920       .  S
C898        C899   1.401       .  A
C898        H903   1.084       .  S
C899        C900   1.404       .  A
C900       Br901   1.920       .  S
C905        C906   1.419       .  A
C905        C910   1.418   1_565  A
C905        H912   1.083       .  S
C906        C907   1.416       .  A
C907        C908   1.410   1_565  A
C907       Br914   1.919       .  S
C908        C909   1.415       .  A
C908        H913   1.080       .  S
C909        C910   1.413       .  A
C910       Br911   1.916       .  S
C915        C916   1.403       .  A
C915        C920   1.399       .  A
C915        H922   1.084       .  S
C916        C917   1.409       .  A
C917        C918   1.393       .  A
C917       Br924   1.919       .  S
C918        C919   1.401       .  A
C918        H923   1.084       .  S
C919        C920   1.408       .  A
C920       Br921   1.916       .  S
C925        C926   1.404       .  A
C925        C930   1.409       .  A
C925        H932   1.083       .  S
C926        C927   1.409       .  A
C927        C928   1.397       .  A
C927       Br934   1.915       .  S
C928        C929   1.405       .  A
C928        H933   1.084       .  S
C929        C930   1.417       .  A
C930       Br931   1.914       .  S
C935        C936   1.410       .  A
C935        C940   1.402       .  A
C935        H942   1.083       .  S
C936        C937   1.418       .  A
C937        C938   1.419       .  A
C937       Br944   1.917       .  S
C938        C939   1.415       .  A
C938        H943   1.083       .  S
C939        C940   1.420       .  A
C940       Br941   1.920       .  S
C945        C946   1.410       .  A
C945        C950   1.398       .  A
C945        H952   1.082       .  S
C946        C947   1.412       .  A
C947        C948   1.398       .  A
C947       Br954   1.915       .  S
C948        C949   1.401       .  A
C948        H953   1.084       .  S
C949        C950   1.403       .  A
C950       Br951   1.918   1_554  S
C955        C956   1.402       .  A
C955        C960   1.404       .  A
C955        H962   1.084       .  S
C956        C957   1.413       .  A
C957        C958   1.403       .  A
C957       Br964   1.918       .  S
C958        C959   1.403       .  A
C958        H963   1.084       .  S
C959        C960   1.415       .  A
C960       Br961   1.920       .  S
C965        C966   1.397       .  A
C965        C970   1.394       .  A
C965        H972   1.082       .  S
C966        C967   1.404       .  A
C967        C968   1.404       .  A
C967      Br2638   1.916       .  S
C968        C969   1.412       .  A
C968        H973   1.083       .  S
C969        C970   1.421       .  A
C970       Br971   1.927       .  S
Br974      C2631   1.916       .  S
C975        C976   1.407       .  A
C975        C980   1.402       .  A
C975        H982   1.083       .  S
C976        C977   1.425       .  A
C977        C978   1.395       .  A
C977       Br984   1.922       .  S
C978        C979   1.394       .  A
C978        H983   1.085       .  S
C979        C980   1.406       .  A
C980       Br981   1.912       .  S
C985        C986   1.399       .  A
C985        C990   1.396       .  A
C985        H992   1.084       .  S
C986        C987   1.400       .  A
C987        C988   1.396       .  A
C987       Br994   1.919       .  S
C988        C989   1.412       .  A
C988        H993   1.083       .  S
C989        C990   1.414       .  A
C990       Br991   1.921       .  S
C995        C996   1.415       .  A
C995       C1000   1.413       .  A
C995       H1002   1.083       .  S
C996       C2661   1.424       .  A
C997        C998   1.405   1_556  A
C997       C2660   1.424       .  A
C997      Br1004   1.921       .  S
C998        C999   1.402       .  A
C998       H1003   1.083       .  S
C999       C2664   1.411       .  A
C1000      C2663   1.410       .  A
C1000     Br1001   1.917       .  S
C1005      C1006   1.408       .  A
C1005      C1010   1.411       .  A
C1005      H1012   1.084       .  S
C1006      C1007   1.412       .  A
C1007      C1008   1.408       .  A
C1007     Br1014   1.920       .  S
C1008      C1009   1.406       .  A
C1008      H1013   1.080       .  S
C1009      C1010   1.414       .  A
C1010     Br1011   1.917       .  S
C1015      C1016   1.409       .  A
C1015      C1020   1.400       .  A
C1015      H1022   1.083       .  S
C1016      C1017   1.421       .  A
C1017      C1018   1.393       .  A
C1017     Br1024   1.919       .  S
C1018      C1019   1.395       .  A
C1018      H1023   1.085       .  S
C1019      C1020   1.404       .  A
C1020     Br1021   1.914       .  S
C1025      C1026   1.409       .  A
C1025      C1030   1.388       .  A
C1025      H1032   1.083       .  S
C1026      C1027   1.407       .  A
C1027      C1028   1.400       .  A
C1027     Br1034   1.920       .  S
C1028      C1029   1.407       .  A
C1028      H1033   1.084       .  S
C1029      C1030   1.400       .  A
C1030     Br1031   1.922       .  S
C1035      C1036   1.405       .  A
C1035      C1040   1.401       .  A
C1035      H1042   1.084       .  S
C1036      C1037   1.401       .  A
C1037      C1038   1.394       .  A
C1037     Br1044   1.920       .  S
C1038      C1039   1.407   1_655  A
C1038      H1043   1.083   1_655  S
C1039      C1040   1.411   1_455  A
C1040     Br1041   1.919       .  S
C1045      C1046   1.409       .  A
C1045      C1050   1.404       .  A
C1045      H1052   1.083       .  S
C1046      C1047   1.419       .  A
C1047      C1048   1.397       .  A
C1047     Br1054   1.925   1_455  S
C1048      C1049   1.399       .  A
C1048      H1053   1.084       .  S
C1049      C1050   1.406       .  A
C1050     Br1051   1.916       .  S
C1055      C1056   1.405       .  A
C1055      C1060   1.410       .  A
C1055      H1062   1.083       .  S
C1056      C1057   1.413       .  A
C1057      C1058   1.404       .  A
C1057     Br1064   1.917       .  S
C1058      C1059   1.404       .  A
C1058      H1063   1.084       .  S
C1059      C1944   1.494       .  S
C1059      C1060   1.416       .  A
C1060     Br1061   1.919       .  S
C1065      C1066   1.401       .  A
C1065      C1070   1.404       .  A
C1065      H1072   1.084       .  S
C1066      C1067   1.404       .  A
C1067      C1068   1.391       .  A
C1067     Br1074   1.907       .  S
C1068      C1069   1.401       .  A
C1068      H1073   1.084       .  S
C1069      C1070   1.414       .  A
C1070     Br1071   1.916       .  S
C1075      C1076   1.412       .  A
C1075      C1080   1.404       .  A
C1075      H1082   1.083       .  S
C1076      C1077   1.414       .  A
C1077      C1078   1.416   1_545  A
C1077     Br1084   1.917       .  S
C1078      C1079   1.415       .  A
C1078      H1083   1.083       .  S
C1079      C1080   1.420   1_565  A
C1080     Br1081   1.924       .  S
C1085      C1086   1.402       .  A
C1085      C1090   1.404       .  A
C1085      H1092   1.083       .  S
C1086      C1087   1.436       .  A
C1087      C1088   1.378   1_655  A
C1087     Br1094   1.927   1_655  S
C1088      C1089   1.378       .  A
C1088      H1093   1.086       .  S
C1089      C1090   1.410   1_455  A
C1090     Br2755   1.915   1_554  S
Br1091     C2754   1.915       .  S
C1095      C1096   1.399       .  A
C1095      C1100   1.371   1_655  A
C1095      H1102   1.085       .  S
C1096      C1097   1.414   1_655  A
C1097      C1098   1.402       .  A
C1097     Br1104   1.918       .  S
C1098      C1099   1.404       .  A
C1098      H1103   1.083       .  S
C1099      C1100   1.406       .  A
C1100     Br1101   1.921   1_455  S
C1105      C1106   1.396       .  A
C1105      C1110   1.397       .  A
C1105      H1112   1.084       .  S
C1106      C1107   1.408       .  A
C1107      C1108   1.392       .  A
C1107     Br2778   1.918       .  S
C1108      C1109   1.402       .  A
C1108      H1113   1.083       .  S
C1109      C1110   1.421       .  A
C1110     Br1111   1.921       .  S
Br1114     C2771   1.918       .  S
C1115      C1116   1.416       .  A
C1115      C1120   1.391       .  A
C1115      H1122   1.082       .  S
C1116      C1117   1.398       .  A
C1117      C1118   1.386       .  A
C1117     Br2788   1.921       .  S
C1118      C1119   1.412       .  A
C1118      H1123   1.081       .  S
C1119      C1120   1.397       .  A
C1120     Br1121   1.920       .  S
Br1124     C2781   1.921       .  S
C1125      C1126   1.396       .  A
C1125      C1130   1.395       .  A
C1125      H1132   1.084       .  S
C1126      C1127   1.429       .  A
C1127      C1128   1.391       .  A
C1127     Br1134   1.920       .  S
C1128      C1129   1.386       .  A
C1128      H1133   1.085       .  S
C1129      C1130   1.415       .  A
C1130     Br1131   1.910       .  S
C1135      C1136   1.406       .  A
C1135      C1140   1.405       .  A
C1135      H1142   1.084       .  S
C1136      C1137   1.410       .  A
C1137      C1138   1.411       .  A
C1137     Br1144   1.918       .  S
C1138      C1139   1.408       .  A
C1138      H1143   1.083       .  S
C1139      C1140   1.408       .  A
C1140     Br1141   1.913       .  S
C1145      C1146   1.408       .  A
C1145      C1150   1.399       .  A
C1145      H1152   1.084       .  S
C1146      C1147   1.406       .  A
C1147      C1148   1.397       .  A
C1147     Br1154   1.919       .  S
C1148      C1149   1.404       .  A
C1148      H1153   1.080       .  S
C1149      C1150   1.406       .  A
C1150     Br1151   1.914   1_655  S
C1155      C1156   1.403       .  A
C1155      C1160   1.413       .  A
C1155      H1162   1.083       .  S
C1156      C1157   1.420       .  A
C1157      C1158   1.413       .  A
C1157     Br1164   1.915       .  S
C1158      C1159   1.402       .  A
C1158      H1163   1.083       .  S
C1159      C1160   1.420       .  A
C1160     Br1161   1.918       .  S
C1165      C1166   1.402       .  A
C1165      C1170   1.404       .  A
C1165      H1172   1.083       .  S
C1166      C1167   1.437       .  A
C1167      C1168   1.386       .  A
C1167     Br2838   1.930   1_554  S
C1168      C1169   1.383       .  A
C1168      H1173   1.085       .  S
C1169      C1170   1.409       .  A
C1170     Br1171   1.913       .  S
Br1174     C2831   1.930       .  S
C1175      C1176   1.393       .  A
C1175      C1180   1.381       .  A
C1175      H1182   1.084       .  S
C1176      C1177   1.427       .  A
C1177      C1178   1.385       .  A
C1177     Br1184   1.929       .  S
C1178      C1179   1.385       .  A
C1178      H1183   1.081       .  S
C1179      C1180   1.411       .  A
C1180     Br1181   1.916       .  S
C1185      C1190   1.413       .  A
C1185      C2850   1.418   1_554  A
C1185      H1192   1.082       .  S
C1186      C1187   1.401       .  A
C1186      C2849   1.418       .  A
C1187      C1188   1.403       .  A
C1187     Br1194   1.920       .  S
C1188      C2853   1.414       .  A
C1188      H1193   1.076       .  S
C1189      C1190   1.403       .  A
C1189      C2852   1.414   1_554  A
C1190     Br1191   1.912       .  S
C1195      C1196   1.402       .  A
C1195      C1200   1.405       .  A
C1195      H1202   1.083       .  S
C1196      C1197   1.410       .  A
C1197      C1198   1.410       .  A
C1197     Br1204   1.919       .  S
C1198      C1199   1.405       .  A
C1198      H1203   1.083       .  S
C1199      C1200   1.414       .  A
C1200     Br1201   1.921       .  S
C1205      C1206   1.392       .  A
C1205      C1210   1.386       .  A
C1205      H1212   1.084       .  S
C1206      C1207   1.420       .  A
C1207      C1208   1.392       .  A
C1207     Br2878   1.920       .  S
C1208      C1209   1.391       .  A
C1208      H1213   1.084       .  S
C1209      C1210   1.414       .  A
C1210     Br1211   1.917       .  S
Br1214     C2871   1.920       .  S
C1215      C1216   1.420       .  A
C1215      C1220   1.403       .  A
C1215      H1222   1.071       .  S
C1216      C1217   1.392       .  A
C1217      C1218   1.393       .  A
C1217     Br1224   1.919       .  S
C1218      C1219   1.415       .  A
C1218      H1223   1.056       .  S
C1219      C1220   1.398       .  A
C1220     Br1221   1.918       .  S
C1225      C1226   1.409       .  A
C1225      C1230   1.395       .  A
C1225      H1232   1.083       .  S
C1226      C1227   1.413       .  A
C1227      C1228   1.406       .  A
C1227     Br1234   1.918       .  S
C1228      C1229   1.406       .  A
C1228      H1233   1.084       .  S
C1229      C1230   1.402       .  A
C1230     Br1231   1.918       .  S
C1235      C1236   1.405       .  A
C1235      C1240   1.399       .  A
C1235      H1242   1.084       .  S
C1236      C1237   1.406       .  A
C1237      C1238   1.401       .  A
C1237     Br1244   1.920       .  S
C1238      C1239   1.412       .  A
C1238      H1243   1.083       .  S
C1239      C1240   1.416       .  A
C1240     Br1241   1.923       .  S
C1245      C1246   1.410       .  A
C1245      C1250   1.415       .  A
C1245      H1252   1.084       .  S
C1246      C1247   1.415       .  A
C1247      C1248   1.411       .  A
C1247     Br1254   1.916       .  S
C1248      C1249   1.405       .  A
C1248      H1253   1.083       .  S
C1249      C1250   1.414       .  A
C1250     Br1251   1.918       .  S
C1255      C1256   1.396       .  A
C1255      C1260   1.396       .  A
C1255      H1262   1.084       .  S
C1256      C1257   1.424       .  A
C1257      C1258   1.388       .  A
C1257     Br1264   1.924       .  S
C1258      C1259   1.392       .  A
C1258      H1263   1.084       .  S
C1259      C1260   1.420       .  A
C1260     Br1261   1.921       .  S
C1265      C1266   1.399       .  A
C1265      C1270   1.398       .  A
C1265      H1272   1.085       .  S
C1266      C1267   1.405       .  A
C1267      C1268   1.409       .  A
C1267     Br1274   1.912       .  S
C1268      C1269   1.412       .  A
C1268      H1273   1.083       .  S
C1269      C1270   1.426       .  A
C1270     Br1271   1.924       .  S
C1275      C1276   1.412       .  A
C1275      C1280   1.402       .  A
C1275      H1282   1.083       .  S
C1276      C1277   1.419       .  A
C1277      C1278   1.408       .  A
C1277     Br1284   1.919       .  S
C1278      C1279   1.406       .  A
C1278      H1283   1.083       .  S
C1279      C1280   1.407       .  A
C1280     Br1281   1.919       .  S
C1285      C1286   1.404       .  A
C1285      C1290   1.409       .  A
C1285      H1292   1.084       .  S
C1286      C1287   1.415       .  A
C1287      C1288   1.411       .  A
C1287     Br1294   1.919       .  S
C1288      C1289   1.405       .  A
C1288      H1293   1.083       .  S
C1289      C1290   1.416       .  A
C1290     Br1291   1.918       .  S
C1295      C1296   1.406       .  A
C1295      C1300   1.392       .  A
C1295      H1302   1.082       .  S
C1296      C1297   1.401       .  A
C1297      C1298   1.398       .  A
C1297     Br1304   1.917       .  S
C1298      C1299   1.409       .  A
C1298      H1303   1.083       .  S
C1299      C1300   1.397       .  A
C1300     Br1301   1.918       .  S
C1305      C1306   1.412       .  A
C1305      C1310   1.404       .  A
C1305      H1312   1.084       .  S
C1306      C1307   1.400       .  A
C1307      C1308   1.399       .  A
C1307     Br1314   1.912       .  S
C1308      C1309   1.407       .  A
C1308      H1313   1.083       .  S
C1309      C1310   1.406       .  A
C1310     Br2975   1.918       .  S
Br1311     C2974   1.918       .  S
C1315      C1316   1.404       .  A
C1315      C1320   1.407       .  A
C1315      H1322   1.084       .  S
C1316      C1812   1.486       .  S
C1316      C1317   1.412       .  A
C1317      C1318   1.406       .  A
C1317     Br1324   1.919       .  S
C1318      C1319   1.406       .  A
C1318      H1323   1.084       .  S
C1319      C1320   1.416       .  A
C1320     Br1321   1.920       .  S
C1325      C1326   1.406       .  A
C1325      C1330   1.391       .  A
C1325      H1332   1.082       .  S
C1326      C1327   1.398       .  A
C1327      C1328   1.399       .  A
C1327     Br2998   1.914       .  S
C1328      C1329   1.407       .  A
C1328      H1333   1.082       .  S
C1329      C1330   1.398       .  A
C1330     Br1331   1.920       .  S
Br1334     C2991   1.914       .  S
C1335      C1336   1.410       .  A
C1335      C1340   1.401       .  A
C1335      H1342   1.084       .  S
C1336      C1337   1.397       .  A
C1337      C1338   1.387       .  A
C1337     Br1344   1.924       .  S
C1338      C1339   1.413       .  A
C1338      H1343   1.082       .  S
C1339      C1340   1.406       .  A
C1340     Br1341   1.917       .  S
C1345      C1346   1.400       .  A
C1345      C1350   1.395       .  A
C1345      H1352   1.084       .  S
C1346      C1347   1.417       .  A
C1347      C1348   1.393       .  A
C1347     Br1354   1.925       .  S
C1348      C1349   1.400       .  A
C1348      H1353   1.084       .  S
C1349      C1350   1.418       .  A
C1350     Br1351   1.923       .  S
C1355      C1356   1.406       .  A
C1355      C1360   1.404       .  A
C1355      H1362   1.083       .  S
C1356      C1357   1.416       .  A
C1357      C1358   1.412       .  A
C1357     Br1364   1.918       .  S
C1358      C1359   1.411       .  A
C1358      H1363   1.083       .  S
C1359      C1360   1.422       .  A
C1360     Br1361   1.919       .  S
C1365      C1366   1.402       .  A
C1365      C1370   1.403       .  A
C1365      H1372   1.084       .  S
C1366      C1367   1.406       .  A
C1367      C1368   1.392       .  A
C1367     Br1374   1.918       .  S
C1368      C1369   1.405       .  A
C1368      H1373   1.083       .  S
C1369      C1370   1.420       .  A
C1370     Br1371   1.924       .  S
C1375      C1376   1.409       .  A
C1375      C1380   1.397       .  A
C1375      H1382   1.083       .  S
C1376      C1377   1.413       .  A
C1377      C1378   1.393       .  A
C1377     Br1384   1.922       .  S
C1378      C1379   1.399       .  A
C1378      H1383   1.082       .  S
C1379      C1380   1.400       .  A
C1380     Br1381   1.911       .  S
C1385      C1386   1.407       .  A
C1385      C1390   1.412       .  A
C1385      H1392   1.083       .  S
C1386      C1387   1.411       .  A
C1387      C1388   1.404       .  A
C1387     Br1394   1.914       .  S
C1388      C1389   1.403       .  A
C1388      H1393   1.084       .  S
C1389      C2037   1.489       .  S
C1389      C1390   1.413       .  A
C1390     Br3055   1.913       .  S
Br1391     C3054   1.914   1_554  S
C1395      C1396   1.409       .  A
C1395      C1400   1.400       .  A
C1395      H1402   1.083       .  S
C1396      C1397   1.418       .  A
C1397      C1398   1.399       .  A
C1397     Br1404   1.920       .  S
C1398      C1399   1.400       .  A
C1398      H1403   1.084       .  S
C1399      C1400   1.407       .  A
C1400     Br1401   1.920       .  S
C1405      C1406   1.402       .  A
C1405      C1410   1.405       .  A
C1405      H1412   1.084       .  S
C1406      C1407   1.412       .  A
C1407      C1408   1.407       .  A
C1407     Br1414   1.916       .  S
C1408      C1409   1.403       .  A
C1408      H1413   1.084   1_554  S
C1409      C2345   1.481   1_554  S
C1409      C1410   1.414       .  A
C1410     Br1411   1.918       .  S
C1415      C1416   1.398       .  A
C1415      C1420   1.391       .  A
C1415      H1422   1.084       .  S
C1416      C1417   1.409       .  A
C1417      C1418   1.402       .  A
C1417     Br1424   1.919       .  S
C1418      C1419   1.409       .  A
C1418      H1423   1.083       .  S
C1419      C1420   1.421       .  A
C1420     Br1421   1.926       .  S
C1425      C1426   1.413       .  A
C1425      C1430   1.411       .  A
C1425      H1432   1.083       .  S
C1426      C1427   1.416       .  A
C1427      C1428   1.398       .  A
C1427     Br1434   1.919       .  S
C1428      C1429   1.405       .  A
C1428      H1433   1.082       .  S
C1429      C1430   1.411       .  A
C1430     Br1431   1.917       .  S
C1435      C1436   1.403       .  A
C1435      C1440   1.394       .  A
C1435      H1442   1.083       .  S
C1436      C1437   1.421       .  A
C1437      C1438   1.403       .  A
C1437     Br1444   1.921       .  S
C1438      C1439   1.399       .  A
C1438      H1443   1.084       .  S
C1439      C1440   1.403       .  A
C1440     Br1441   1.906       .  S
C1445      C1446   1.400       .  A
C1445      C1450   1.397       .  A
C1445      H1452   1.084       .  S
C1446      C1447   1.411       .  A
C1447      C1448   1.401       .  A
C1447     Br1454   1.920       .  S
C1448      C1449   1.409       .  A
C1448      H1453   1.083       .  S
C1449      C1450   1.419       .  A
C1450     Br1451   1.924       .  S
C1455      C1456   1.405       .  A
C1455      C1460   1.410       .  A
C1455      H1462   1.084       .  S
C1456      C1457   1.410       .  A
C1457      C1458   1.406       .  A
C1457     Br1464   1.919       .  S
C1458      C1459   1.405       .  A
C1458      H1463   1.080       .  S
C1459      C1460   1.413       .  A
C1460     Br1461   1.917       .  S
C1465      C1466   1.409       .  A
C1465      C1470   1.393       .  A
C1465      H1472   1.083       .  S
C1466      C1467   1.410       .  A
C1467      C1468   1.402       .  A
C1467     Br1474   1.919       .  S
C1468      C1469   1.407       .  A
C1468      H1473   1.084       .  S
C1469      C1470   1.400       .  A
C1470     Br1471   1.921       .  S
C1475      C1476   1.408       .  A
C1475      C1480   1.395       .  A
C1475      H1482   1.083       .  S
C1476      C1477   1.407       .  A
C1477      C1478   1.398       .  A
C1477     Br1484   1.919       .  S
C1478      C1479   1.409       .  A
C1478      H1483   1.085       .  S
C1479      C1480   1.400       .  A
C1480     Br1481   1.917       .  S
C1485      C1486   1.400       .  A
C1485      C1490   1.392       .  A
C1485      H1492   1.078       .  S
C1486      C1487   1.412       .  A
C1487      C1488   1.397       .  A
C1487     Br1494   1.922       .  S
C1488      C1489   1.403       .  A
C1488      H1493   1.083       .  S
C1489      C1490   1.408       .  A
C1490     Br1491   1.921       .  S
C1495      C1496   1.412       .  A
C1495      C1500   1.400       .  A
C1495      H1502   1.083       .  S
C1496      C1497   1.416       .  A
C1497      C1498   1.397       .  A
C1497     Br1504   1.921       .  S
C1498      C1499   1.399       .  A
C1498      H1503   1.084       .  S
C1499      C1500   1.404       .  A
C1500     Br1501   1.918       .  S
C1505      C1506   1.401       .  A
C1505      C1510   1.397       .  A
C1505      H1512   1.082       .  S
C1506      C1507   1.408       .  A
C1507      C1508   1.411       .  A
C1507     Br1514   1.915       .  S
C1508      C1509   1.406       .  A
C1508      H1513   1.079       .  S
C1509      C1510   1.413       .  A
C1510     Br1511   1.924       .  S
C1515      C1516   1.407       .  A
C1515      C1520   1.398       .  A
C1515      H1522   1.083       .  S
C1516      C1517   1.423       .  A
C1517      C1518   1.398       .  A
C1517     Br1524   1.923       .  S
C1518      C1519   1.397       .  A
C1518      H1523   1.085       .  S
C1519      C1520   1.405       .  A
C1520     Br1521   1.917       .  S
C1525      C1526   1.406       .  A
C1525      C1530   1.401       .  A
C1525      H1532   1.084       .  S
C1526      C1527   1.398       .  A
C1527      C1528   1.388       .  A
C1527     Br1534   1.921       .  S
C1528      C1529   1.408       .  A
C1528      H1533   1.082       .  S
C1529      C1530   1.411       .  A
C1530     Br1531   1.920       .  S
C1535      C1540   1.408   1_556  A
C1535      C3200   1.408       .  A
C1535      H1542   1.083       .  S
C1536      C1537   1.410       .  A
C1536      C3199   1.408       .  A
C1537      C1538   1.411       .  A
C1537     Br1544   1.916       .  S
C1538      C3203   1.414       .  A
C1538      H1543   1.083       .  S
C1539      C1540   1.422       .  A
C1539      C3202   1.413       .  A
C1540     Br1541   1.920       .  S
C1545      C1546   1.402       .  A
C1545      C1550   1.404       .  A
C1545      H1552   1.084       .  S
C1546      C1547   1.404       .  A
C1547      C1548   1.387       .  A
C1547     Br1554   1.918       .  S
C1548      C1549   1.404       .  A
C1548      H1553   1.083       .  S
C1549      C1550   1.417       .  A
C1550     Br1551   1.921       .  S
C1555      C1556   1.410       .  A
C1555      C1560   1.403       .  A
C1555      H1562   1.083       .  S
C1556      C1557   1.412       .  A
C1557      C1558   1.393       .  A
C1557     Br1564   1.921       .  S
C1558      C1559   1.400       .  A
C1558      H1563   1.085       .  S
C1559      C1560   1.403       .  A
C1560     Br1561   1.918       .  S
C1565      C1566   1.410       .  A
C1565      C1570   1.395       .  A
C1565      H1572   1.084       .  S
C1566      C1567   1.400       .  A
C1567      C1568   1.391       .  A
C1567     Br1574   1.918       .  S
C1568      C1569   1.414       .  A
C1568      H1573   1.083       .  S
C1569      C1570   1.408       .  A
C1570     Br1571   1.921       .  S
C1575      C1576   1.406       .  A
C1575      C1580   1.401       .  A
C1575      H1582   1.077       .  S
C1576      C1577   1.403       .  A
C1577      C1578   1.399       .  A
C1577     Br1584   1.916       .  S
C1578      C1579   1.413       .  A
C1578      H1583   1.082       .  S
C1579      C1580   1.413       .  A
C1580     Br1581   1.921       .  S
C1585      C1586   1.411       .  A
C1585      C1590   1.414       .  A
C1585      H1592   1.083       .  S
C1586      C1587   1.408       .  A
C1587      C1588   1.402       .  A
C1587     Br1594   1.920       .  S
C1588      C1589   1.408       .  A
C1588      H1593   1.082       .  S
C1589      C2257   1.494       .  S
C1589      C1590   1.410       .  A
C1590     Br3255   1.916       .  S
Br1591     C3254   1.916       .  S
C1595      C1596   1.413       .  A
C1595      C1600   1.397       .  A
C1595      H1602   1.083       .  S
C1596      C1597   1.417       .  A
C1597      C1598   1.398       .  A
C1597     Br1604   1.922       .  S
C1598      C1599   1.400       .  A
C1598      H1603   1.084       .  S
C1599      C1600   1.400       .  A
C1600     Br1601   1.919       .  S
C1605      C1606   1.410       .  A
C1605      C1610   1.391       .  A
C1605      H1612   1.083       .  S
C1606      C1607   1.411       .  A
C1607      C1608   1.390       .  A
C1607     Br1614   1.923       .  S
C1608      C1609   1.398       .  A
C1608      H1613   1.085       .  S
C1609      C1610   1.398       .  A
C1610     Br1611   1.919   1_655  S
C1615      C1616   1.408       .  A
C1615      C1620   1.413       .  A
C1615      H1622   1.083       .  S
C1616      C1617   1.412       .  A
C1617      C1618   1.404       .  A
C1617     Br1624   1.913       .  S
C1618      C1619   1.403       .  A
C1618      H1623   1.084       .  S
C1619      C2081   1.488       .  S
C1619      C1620   1.411       .  A
C1620     Br3285   1.916       .  S
Br1621     C3284   1.917       .  S
C1625      C1626   1.406       .  A
C1625      C1630   1.395       .  A
C1625      H1632   1.079       .  S
C1626      C1627   1.400       .  A
C1627      C1628   1.395       .  A
C1627     Br1634   1.919       .  S
C1628      C1629   1.413       .  A
C1628      H1633   1.082       .  S
C1629      C1630   1.408       .  A
C1630     Br1631   1.920       .  S
C1635      C1636   1.392       .  A
C1635      C1640   1.392       .  A
C1635      H1642   1.083       .  S
C1636      C1637   1.429       .  A
C1637      C1638   1.392       .  A
C1637     Br3308   1.929       .  S
C1638      C1639   1.390       .  A
C1638      H1643   1.084       .  S
C1639      C1640   1.423       .  A
C1640     Br1641   1.921       .  S
Br1644     C3301   1.929       .  S
C1645      C1646   1.398       .  A
C1645      C1650   1.409       .  A
C1645      H1652   1.083       .  S
C1646      C1647   1.432       .  A
C1647      C1648   1.412       .  A
C1647     Br1654   1.925       .  S
C1648      C1649   1.399       .  A
C1648      H1653   1.083       .  S
C1649      C1650   1.428       .  A
C1650     Br1651   1.916       .  S
C1655      C1656   1.399       .  A
C1655      C1660   1.397       .  A
C1655      H1662   1.083       .  S
C1656      C1657   1.408       .  A
C1657      C1658   1.402       .  A
C1657     Br1664   1.919       .  S
C1658      C1659   1.409       .  A
C1658      H1663   1.083       .  S
C1659      C1660   1.421       .  A
C1660     Br1661   1.925       .  S
O1665      C1680   1.253       .  A
O1665     Al1673   1.852       .  S
C1666      O1676   1.282       .  A
C1666      O1667   1.267       .  A
C1666      C3290   1.457       .  S
O1667     Al1669   1.875       .  S
O1668      C1670   1.257       .  A
O1668     Al1669   1.908       .  S
Al1669     O1677   1.941       .  S
Al1669     O1679   1.910       .  S
Al1669     O1678   1.786       .  S
C1670      O1683   1.252       .  A
C1670      C3320   1.475       .  S
O1671      C1681   1.242       .  A
O1671     Al1673   1.870       .  S
O1672      C1685   1.285       .  A
O1672     Al1682   1.956       .  S
Al1673     O1686   1.933       .  S
Al1673     O1683   1.876       .  S
Al1673     O1678   1.771       .  S
O1674      C1681   1.248       .  A
O1674     Al1682   1.903       .  S
O1675      C1684   1.247       .  A
O1675     Al1682   1.890       .  S
O1676     Al1682   1.939       .  S
O1677      C1684   1.267       .  A
O1678     Al1682   1.792       .  S
O1679      C1680   1.269       .  A
C1680      C3303   1.468       .  S
C1681      C3270   1.467       .  S
C1684      C3310   1.511       .  S
C1685      O1686   1.275       .  A
C1685      C3280   1.491       .  S
O1687      C1702   1.253       .  A
O1687     Al1695   1.870       .  S
C1688      O1698   1.273       .  A
C1688      O1689   1.257       .  A
C1688      C3230   1.469       .  S
O1689     Al1691   1.871       .  S
O1690      C1692   1.260       .  A
O1690     Al1691   1.906       .  S
Al1691     O1699   1.949       .  S
Al1691     O1701   1.925       .  S
Al1691     O1700   1.808       .  S
C1692      O1705   1.259       .  A
C1692      C3260   1.486       .  S
O1693      C1703   1.250       .  A
O1693     Al1695   1.891       .  S
O1694      C1707   1.279       .  A
O1694     Al1704   1.958       .  S
Al1695     O1708   1.899       .  S
Al1695     O1705   1.893       .  S
Al1695     O1700   1.784       .  S
O1696      C1703   1.254       .  A
O1696     Al1704   1.905       .  S
O1697      C1706   1.259       .  A
O1697     Al1704   1.917       .  S
O1698     Al1704   1.931       .  S
O1699      C1706   1.275       .  A
O1700     Al1704   1.784       .  S
O1701      C1702   1.260       .  A
C1702      C3243   1.499       .  S
C1703      C3220   1.479       .  S
C1706      C3313   1.510       .  S
C1707      O1708   1.265       .  A
C1707      C3250   1.487       .  S
O1709      C1724   1.266       .  A
O1709     Al1717   1.910       .  S
C1710      C3190   1.448       .  S
O1711     Al1713   1.915       .  S
O1712      C1714   1.264       .  A
O1712     Al1713   1.936       .  S
Al1713     O1721   1.945       .  S
Al1713     O1723   1.934       .  S
Al1713     O1722   1.792       .  S
C1714      O1727   1.256       .  A
C1714      C3160   1.488       .  S
O1715      C1725   1.260       .  A
O1715     Al1717   1.916       .  S
O1716      C1729   1.265       .  A
O1716     Al1726   1.925       .  S
Al1717     O1730   1.882       .  S
Al1717     O1727   1.882       .  S
Al1717     O1722   1.775       .  S
O1718      C1725   1.256       .  A
O1718     Al1726   1.883       .  S
O1719      C1728   1.268       .  A
O1719     Al1726   1.905       .  S
O1720     Al1726   1.881       .  S
O1721      C1728   1.267       .  A
O1722     Al1726   1.781       .  S
O1723      C1724   1.272       .  A
C1724      C3170   1.478       .  S
C1725      C3210   1.464       .  S
C1728      C3200   1.502       .  S
C1729      O1730   1.256       .  A
C1729      C3180   1.488       .  S
O1731      C1746   1.263       .  A
O1731     Al1739   1.905       .  S
C1732      C3143   1.458       .  S
O1733     Al1735   1.931       .  S
O1734      C1736   1.264       .  A
O1734     Al1735   1.930       .  S
Al1735     O1743   1.940       .  S
Al1735     O1745   1.943       .  S
Al1735     O1744   1.791       .  S
C1736      O1749   1.254       .  A
C1736      C3110   1.477       .  S
O1737      C1747   1.258       .  A
O1737     Al1739   1.903       .  S
O1738      C1751   1.260       .  A
O1738     Al1748   1.920       .  S
Al1739     O1752   1.877       .  S
Al1739     O1749   1.883       .  S
Al1739     O1744   1.778       .  S
O1740      C1747   1.259       .  A
O1740     Al1748   1.893       .  S
O1741      C1750   1.271       .  A
O1741     Al1748   1.920       .  S
O1742     Al1748   1.863       .  S
O1743      C1750   1.269       .  A
O1744     Al1748   1.790       .  S
O1745      C1746   1.273       .  A
C1746      C3120   1.487       .  S
C1747      C3153   1.466       .  S
C1750      C3203   1.512       .  S
C1751      O1752   1.258       .  A
C1751      C3130   1.479       .  S
O1753      C1768   1.256       .  A
O1753     Al1761   1.879       .  S
C1754      O1764   1.269       .  A
C1754      O1755   1.253       .  A
C1754      C3183   1.458       .  S
O1755     Al1757   1.876       .  S
O1756      C1758   1.266       .  A
O1756     Al1757   1.906       .  S
Al1757     O1765   1.919       .  S
Al1757     O1767   1.906       .  S
Al1757     O1766   1.790       .  S
C1758      O1771   1.259       .  A
C1758      C3100   1.485       .  S
O1759      C1769   1.255       .  A
O1759     Al1761   1.892       .  S
O1760      C1773   1.273       .  A
O1760     Al1770   1.943       .  S
Al1761     O1774   1.903       .  S
Al1761     O1771   1.909       .  S
Al1761     O1766   1.773       .  S
O1762      C1769   1.260       .  A
O1762     Al1770   1.905       .  S
O1763      C1772   1.266       .  A
O1763     Al1770   1.927       .  S
O1764     Al1770   1.938       .  S
O1765      C1772   1.270       .  A
O1766     Al1770   1.784       .  S
O1767      C1768   1.255       .  A
C1768      C3193   1.474       .  S
C1769      C3080   1.473       .  S
C1772      C3090   1.497       .  S
C1773      O1774   1.264       .  A
C1773      C3070   1.484       .  S
O1775      C1790   1.259       .  A
O1775     Al1783   1.883       .  S
C1776      O1786   1.267       .  A
C1776      O1777   1.256       .  A
C1776      C3133   1.457       .  S
O1777     Al1779   1.882       .  S
O1778      C1780   1.262       .  A
O1778     Al1779   1.900       .  S
Al1779     O1787   1.903       .  S
Al1779     O1789   1.900       .  S
Al1779     O1788   1.787       .  S
C1780      O1793   1.260       .  A
C1780      C3063   1.473       .  S
O1781      C1791   1.254       .  A
O1781     Al1783   1.880       .  S
O1782      C1795   1.274       .  A
O1782     Al1792   1.944       .  S
Al1783     O1796   1.920       .  S
Al1783     O1793   1.909       .  S
Al1783     O1788   1.777       .  S
O1784      C1791   1.259       .  A
O1784     Al1792   1.908       .  S
O1785      C1794   1.265       .  A
O1785     Al1792   1.941       .  S
O1786     Al1792   1.924       .  S
O1787      C1794   1.266       .  A
O1788     Al1792   1.797       .  S
O1789      C1790   1.257       .  A
C1790      C3140   1.471       .  S
C1791      C3040   1.476       .  S
C1794      C3093   1.495       .  S
C1795      O1796   1.266       .  A
C1795      C3050   1.491       .  S
C1798      O1808   1.259       .  A
C1798      O1799   1.268       .  A
C1798      C3000   1.454       .  S
O1799     Al1801   1.913       .  S
O1800      C1802   1.267       .  A
O1800     Al1801   1.940       .  S
Al1801     O1809   1.949       .  S
Al1801     O1811   1.941       .  S
Al1801     O1810   1.796       .  S
C1802      O1815   1.251       .  A
C1802      C3010   1.477       .  S
O1803      C1813   1.257       .  A
O1803     Al1805   1.900       .  S
O1804     Al1814   1.917       .  S
Al1805     O1815   1.864       .  S
Al1805     O1810   1.770       .  S
O1806      C1813   1.261       .  A
O1806     Al1814   1.909       .  S
O1807      C1816   1.266       .  A
O1807     Al1814   1.902       .  S
O1808     Al1814   1.879       .  S
O1809      C1816   1.267       .  A
O1810     Al1814   1.786       .  S
O1811      C1812   1.273   1_556  A
C1813      C3030   1.470   1_655  S
C1816      C3020   1.507       .  S
C1817      O1818   1.255       .  A
C1817      C2990   1.458   1_655  S
O1819      C1834   1.261       .  A
O1819     Al1827   1.896       .  S
C1820      O1830   1.251       .  A
C1820      O1821   1.272       .  A
C1820      C2970   1.468       .  S
O1821     Al1823   1.952       .  S
O1822      C1824   1.265       .  A
O1822     Al1823   1.933       .  S
Al1823     O1831   1.945       .  S
Al1823     O1833   1.961       .  S
Al1823     O1832   1.796       .  S
C1824      O1837   1.253       .  A
C1824      C3323   1.492       .  S
O1825      C1835   1.257       .  A
O1825     Al1827   1.900       .  S
O1826      C1839   1.256       .  A
O1826     Al1836   1.899       .  S
Al1827     O1840   1.880       .  S
Al1827     O1837   1.877       .  S
Al1827     O1832   1.784       .  S
O1828      C1835   1.259       .  A
O1828     Al1836   1.899       .  S
O1829      C1838   1.268       .  A
O1829     Al1836   1.912       .  S
O1830     Al1836   1.855       .  S
O1831      C1838   1.269       .  A
O1832     Al1836   1.790       .  S
O1833      C1834   1.276       .  A
C1834      C2953   1.495       .  S
C1835      C3043   1.460   1_655  S
C1838      C3023   1.509       .  S
C1839      O1840   1.257       .  A
C1839      C2960   1.462   1_655  S
O1841      C1856   1.280       .  A
O1841     Al1849   1.939       .  S
C1842      O1852   1.270       .  A
C1842      O1843   1.290       .  A
C1842      C2930   1.470       .  S
O1843     Al1845   1.965       .  S
O1844      C1846   1.241       .  A
O1844     Al1845   1.882       .  S
Al1845     O1853   1.875       .  S
Al1845     O1855   1.965       .  S
Al1845     O1854   1.778       .  S
C1846      O1859   1.246       .  A
C1846      C3263   1.464       .  S
O1847      C1857   1.260       .  A
O1847     Al1849   1.907       .  S
O1848      C1861   1.264       .  A
O1848     Al1858   1.890       .  S
Al1849     O1862   1.877       .  S
Al1849     O1859   1.902       .  S
Al1849     O1854   1.776       .  S
O1850      C1857   1.253       .  A
O1850     Al1858   1.883       .  S
O1851      C1860   1.254       .  A
O1851     Al1858   1.909       .  S
O1852     Al1858   1.879       .  S
O1853      C1860   1.243       .  A
O1854     Al1858   1.782       .  S
O1855      C1856   1.291       .  A
C1856      C2913   1.499       .  S
C1857      C3083   1.487       .  S
C1860      C2943   1.486       .  S
C1861      O1862   1.256       .  A
C1861      C2923   1.468       .  S
O1863      C1878   1.277   1_554  A
C1864      O1874   1.262       .  A
C1864      O1865   1.286       .  A
C1864      C2880   1.471       .  S
O1865     Al1867   1.949       .  S
O1866      C1868   1.252       .  A
O1866     Al1867   1.931       .  S
Al1867     O1875   1.889       .  S
Al1867     O1877   1.931       .  S
Al1867     O1876   1.804       .  S
C1868      O1881   1.244       .  A
C1868      C2890   1.487       .  S
O1869      C1879   1.259       .  A
O1869     Al1871   1.901       .  S
O1870     Al1880   1.878       .  S
Al1871     O1881   1.872       .  S
Al1871     O1876   1.780       .  S
O1872      C1879   1.256       .  A
O1872     Al1880   1.887       .  S
O1873      C1882   1.258       .  A
O1873     Al1880   1.909       .  S
O1874     Al1880   1.856       .  S
O1875      C1882   1.250       .  A
O1876     Al1880   1.789       .  S
C1878      C2860   1.485       .  S
C1879      C2900   1.480       .  S
C1882      C2940   1.501       .  S
C1883      O1884   1.251       .  A
C1883      C2870   1.459       .  S
O1885      C1900   1.244       .  A
O1885     Al1893   1.853       .  S
C1886      C2830   1.487       .  S
O1887     Al1889   1.792       .  S
O1888      C1890   1.268       .  A
O1888     Al1889   1.931       .  S
Al1889     O1897   1.917       .  S
Al1889     O1899   1.886       .  S
Al1889     O1898   1.778       .  S
C1890      O1903   1.272       .  A
C1890      C3013   1.478       .  S
O1891      C1901   1.243       .  A
O1891     Al1893   1.858       .  S
O1892      C1905   1.294       .  A
O1892     Al1902   2.026       .  S
Al1893     O1906   1.852       .  S
Al1893     O1903   1.903       .  S
Al1893     O1898   1.789       .  S
O1894      C1901   1.250       .  A
O1894     Al1902   1.913       .  S
O1895      C1904   1.251       .  A
O1895     Al1902   1.873       .  S
O1896     Al1902   1.998       .  S
O1897      C1904   1.260       .  A
O1898     Al1902   1.775       .  S
O1899      C1900   1.260       .  A
C1900      C2840   1.458       .  S
C1901      C2810   1.475       .  S
C1904      C2850   1.496       .  S
C1905      O1906   1.261       .  A
C1905      C2823   1.499       .  S
O1907      C1922   1.252       .  A
O1907     Al1915   1.855       .  S
C1908      C2780   1.463       .  S
O1909     Al1911   1.867       .  S
O1910      C1912   1.256       .  A
O1910     Al1911   1.912       .  S
Al1911     O1919   1.946       .  S
Al1911     O1921   1.913       .  S
Al1911     O1920   1.793       .  S
C1912      O1925   1.252       .  A
C1912      C2893   1.472       .  S
O1913      C1923   1.239       .  A
O1913     Al1915   1.872       .  S
O1914      C1927   1.280       .  A
O1914     Al1924   1.944       .  S
Al1915     O1928   1.931       .  S
Al1915     O1925   1.880       .  S
Al1915     O1920   1.767       .  S
O1916      C1923   1.254       .  A
O1916     Al1924   1.922       .  S
O1917      C1926   1.248       .  A
O1917     Al1924   1.881       .  S
O1918     Al1924   1.924       .  S
O1919      C1926   1.268       .  A
O1920     Al1924   1.795       .  S
O1921      C1922   1.270       .  A
C1922      C2790   1.477       .  S
C1923      C2773   1.481       .  S
C1926      C2853   1.502       .  S
C1927      O1928   1.274       .  A
C1927      C2803   1.487       .  S
C1930      O1940   1.248       .  A
C1930      O1931   1.270       .  A
C1930      C2763   1.454       .  S
O1931     Al1933   1.963       .  S
O1932      C1934   1.260       .  A
O1932     Al1933   1.883       .  S
Al1933     O1941   1.942       .  S
Al1933     O1943   1.971       .  S
Al1933     O1942   1.789       .  S
C1934      O1947   1.264       .  A
C1934      C2733   1.478       .  S
O1935      C1945   1.259       .  A
O1935     Al1937   1.921   1_556  S
O1936     Al1946   1.871       .  S
Al1937     O1947   1.929   1_554  S
Al1937     O1942   1.767   1_554  S
O1938      C1945   1.259   1_655  A
O1938     Al1946   1.917   1_655  S
O1939      C1948   1.267       .  A
O1939     Al1946   1.931       .  S
O1940     Al1946   1.817       .  S
O1941      C1948   1.273       .  A
O1942     Al1946   1.765       .  S
O1943      C1944   1.276   1_556  A
C1945      C2813   1.475   1_455  S
C1948      C2740   1.515       .  S
C1949      O1950   1.273       .  A
C1949      C2753   1.448       .  S
O1951      C1966   1.262       .  A
O1951     Al1959   1.889       .  S
C1952      O1962   1.256       .  A
C1952      O1953   1.271       .  A
C1952      C2713   1.464       .  S
O1953     Al1955   1.944       .  S
O1954      C1956   1.259       .  A
O1954     Al1955   1.923       .  S
Al1955     O1963   1.962       .  S
Al1955     O1965   1.962       .  S
Al1955     O1964   1.788       .  S
C1956      O1969   1.257       .  A
C1956      C3060   1.491       .  S
O1957      C1967   1.254       .  A
O1957     Al1959   1.873       .  S
O1958      C1971   1.257       .  A
O1958     Al1968   1.902       .  S
Al1959     O1972   1.888       .  S
Al1959     O1969   1.897       .  S
Al1959     O1964   1.776       .  S
O1960      C1967   1.259       .  A
O1960     Al1968   1.885       .  S
O1961      C1970   1.265       .  A
O1961     Al1968   1.906       .  S
O1962     Al1968   1.892       .  S
O1963      C1970   1.271       .  A
O1964     Al1968   1.791       .  S
O1965      C1966   1.281       .  A
C1966      C3123   1.487       .  S
C1967      C3273   1.442   1_455  S
C1970      C2743   1.516       .  S
C1971      O1972   1.260       .  A
C1971      C2703   1.478       .  S
O1973      C1988   1.252       .  A
O1973     Al1981   1.861       .  S
C1974      C2683   1.453       .  S
O1975     Al1977   1.891       .  S
O1976      C1978   1.259       .  A
O1976     Al1977   1.896       .  S
Al1977     O1985   1.905       .  S
Al1977     O1987   1.933       .  S
Al1977     O1986   1.785       .  S
C1978      O1991   1.263       .  A
C1978      C2730   1.469       .  S
O1979      C1989   1.255       .  A
O1979     Al1981   1.881       .  S
O1980      C1993   1.280       .  A
O1980     Al1990   1.960       .  S
Al1981     O1994   1.900       .  S
Al1981     O1991   1.929       .  S
Al1981     O1986   1.766       .  S
O1982      C1989   1.267       .  A
O1982     Al1990   1.932       .  S
O1983      C1992   1.274       .  A
O1983     Al1990   1.969       .  S
O1984     Al1990   1.930       .  S
O1985      C1992   1.266       .  A
O1986     Al1990   1.783       .  S
O1987      C1988   1.263       .  A
C1988      C2690   1.472       .  S
C1989      C3033   1.487       .  S
C1992      C2660   1.515       .  S
C1993      O1994   1.262       .  A
C1993      C2670   1.489       .  S
O1995      C2010   1.253       .  A
O1995     Al2003   1.874       .  S
C1996      C2630   1.463   1_554  S
O1997     Al1999   1.892       .  S
O1998      C2000   1.260       .  A
O1998     Al1999   1.896       .  S
Al1999     O2007   1.923       .  S
Al1999     O2009   1.927       .  S
Al1999     O2008   1.791       .  S
C2000      O2013   1.257       .  A
C2000      C2650   1.458       .  S
O2001      C2011   1.252       .  A
O2001     Al2003   1.882       .  S
O2002      C2015   1.275       .  A
O2002     Al2012   1.940       .  S
Al2003     O2016   1.899       .  S
Al2003     O2013   1.895       .  S
Al2003     O2008   1.771       .  S
O2004      C2011   1.259       .  A
O2004     Al2012   1.928       .  S
O2005      C2014   1.264       .  A
O2005     Al2012   1.929       .  S
O2006     Al2012   1.941       .  S
O2007      C2014   1.272       .  A
O2008     Al2012   1.790       .  S
O2009      C2010   1.264       .  A
C2010      C2640   1.490       .  S
C2011      C2903   1.492       .  S
C2014      C2663   1.495       .  S
C2015      O2016   1.265       .  A
C2015      C2620   1.478       .  S
O2017      C2032   1.262       .  A
C2018      O2028   1.263       .  A
C2018      O2019   1.255       .  A
C2018      C2963   1.454       .  S
O2019     Al2021   1.862       .  S
O2020      C2022   1.259       .  A
O2020     Al2021   1.905       .  S
Al2021     O2029   1.917       .  S
Al2021     O2031   1.923       .  S
Al2021     O2030   1.782       .  S
C2022      O2035   1.257       .  A
C2022      C2610   1.482   1_455  S
O2023      C2033   1.255       .  A
O2023     Al2025   1.874       .  S
O2024      C2037   1.272       .  A
O2024     Al2034   1.946       .  S
Al2025     O2035   1.904       .  S
Al2025     O2030   1.784       .  S
O2026      C2033   1.264       .  A
O2026     Al2034   1.921       .  S
O2027      C2036   1.269       .  A
O2027     Al2034   1.948       .  S
O2028     Al2034   1.917       .  S
O2029      C2036   1.270       .  A
O2030     Al2034   1.804       .  S
C2032      C2973   1.477   1_455  S
C2033      C3150   1.472       .  S
C2036      C2603   1.516       .  S
O2039      C2054   1.258       .  A
O2039     Al2047   1.866       .  S
C2040      O2050   1.263       .  A
C2040      O2041   1.258       .  A
C2040      C2993   1.451       .  S
O2041     Al2043   1.861       .  S
O2042      C2044   1.253       .  A
O2042     Al2043   1.888   1_655  S
Al2043     O2051   1.884       .  S
Al2043     O2053   1.913       .  S
Al2043     O2052   1.789       .  S
C2044      O2057   1.266   1_655  A
C2044      C2590   1.480       .  S
O2045      C2055   1.253       .  A
O2045     Al2047   1.877       .  S
O2046      C2059   1.274       .  A
O2046     Al2056   1.962       .  S
Al2047     O2060   1.904       .  S
Al2047     O2057   1.940       .  S
Al2047     O2052   1.792       .  S
O2048      C2055   1.257       .  A
O2048     Al2056   1.902       .  S
O2049      C2058   1.271       .  A
O2049     Al2056   1.943       .  S
O2050     Al2056   1.925       .  S
O2051      C2058   1.257       .  A
O2052     Al2056   1.811       .  S
O2053      C2054   1.266       .  A
C2054      C3003   1.479   1_455  S
C2055      C2583   1.465       .  S
C2058      C2600   1.516       .  S
C2059      O2060   1.263       .  A
C2059      C2673   1.500       .  S
O2061      C2076   1.255       .  A
C2062      O2072   1.282       .  A
C2062      O2063   1.269       .  A
C2062      C2700   1.454       .  S
O2063     Al2065   1.879       .  S
O2064      C2066   1.254   1_655  A
O2064     Al2065   1.888       .  S
Al2065     O2073   1.921       .  S
Al2065     O2075   1.920       .  S
Al2065     O2074   1.784       .  S
C2066      O2079   1.259   1_455  A
C2066      C3113   1.490       .  S
O2067      C2077   1.247       .  A
O2067     Al2069   1.886       .  S
O2068      C2081   1.286       .  A
O2068     Al2078   1.949       .  S
Al2069     O2079   1.901       .  S
Al2069     O2074   1.775       .  S
O2070      C2077   1.247       .  A
O2070     Al2078   1.909       .  S
O2071      C2080   1.250       .  A
O2071     Al2078   1.907       .  S
O2072     Al2078   1.934       .  S
O2073      C2080   1.260       .  A
O2074     Al2078   1.797       .  S
C2076      C2710   1.488   1_655  S
C2077      C2560   1.486       .  S
C2080      C2570   1.520       .  S
O2083      C2098   1.270       .  A
O2083     Al2091   1.872       .  S
C2084      O2094   1.290       .  A
C2084      O2085   1.253       .  A
C2084      C2750   1.478       .  S
O2085     Al2087   1.841       .  S
O2086      C2088   1.252       .  A
O2086     Al2087   1.896       .  S
Al2087     O2095   1.916       .  S
Al2087     O2097   1.893       .  S
Al2087     O2096   1.770       .  S
C2088      O2101   1.261       .  A
C2088      C2550   1.468   1_655  S
O2089      C2099   1.249       .  A
O2089     Al2091   1.864       .  S
O2090      C2103   1.285       .  A
O2090     Al2100   2.005       .  S
Al2091     O2104   1.860       .  S
Al2091     O2101   1.933       .  S
Al2091     O2096   1.774       .  S
O2092      C2099   1.260       .  A
O2092     Al2100   1.930       .  S
O2093      C2102   1.262       .  A
O2093     Al2100   1.931       .  S
O2094     Al2100   2.006       .  S
O2095      C2102   1.253       .  A
O2096     Al2100   1.789       .  S
O2097      C2098   1.271       .  A
C2098      C2760   1.452       .  S
C2099      C2540   1.481       .  S
C2102      C2573   1.523       .  S
C2103      O2104   1.256       .  A
C2103      C2820   1.501       .  S
O2105      C2120   1.262       .  A
O2105     Al2113   1.878       .  S
C2106      C3300   1.475   1_554  S
O2107     Al2109   1.950       .  S
O2108      C2110   1.251       .  A
O2108     Al2109   1.896       .  S
Al2109     O2117   1.914       .  S
Al2109     O2119   1.971       .  S
Al2109     O2118   1.787       .  S
C2110      O2123   1.248       .  A
C2110      C2613   1.467       .  S
O2111      C2121   1.259       .  A
O2111     Al2113   1.896       .  S
O2112      C2125   1.255       .  A
O2112     Al2122   1.908       .  S
Al2113     O2126   1.861       .  S
Al2113     O2123   1.880       .  S
Al2113     O2118   1.788       .  S
O2114      C2121   1.261       .  A
O2114     Al2122   1.911       .  S
O2115      C2124   1.276       .  A
O2115     Al2122   1.953       .  S
O2116     Al2122   1.842       .  S
O2117      C2124   1.258       .  A
O2118     Al2122   1.813       .  S
O2119      C2120   1.283       .  A
C2120      C2950   1.488       .  S
C2121      C2563   1.468       .  S
C2124      C2530   1.512       .  S
C2125      O2126   1.248       .  A
C2125      C3293   1.485       .  S
O2127      C2142   1.272       .  A
O2127     Al2135   1.908       .  S
C2128      C3240   1.469       .  S
O2129     Al2131   1.968       .  S
O2130      C2132   1.242       .  A
O2130     Al2131   1.880       .  S
Al2131     O2139   1.885       .  S
Al2131     O2141   1.986       .  S
Al2131     O2140   1.776       .  S
C2132      O2145   1.242       .  A
C2132      C2513   1.468       .  S
O2133      C2143   1.251       .  A
O2133     Al2135   1.869       .  S
O2134      C2147   1.264       .  A
O2134     Al2144   1.904       .  S
Al2135     O2148   1.862       .  S
Al2135     O2145   1.881       .  S
Al2135     O2140   1.775       .  S
O2136      C2143   1.261       .  A
O2136     Al2144   1.916       .  S
O2137      C2146   1.261       .  A
O2137     Al2144   1.934       .  S
O2138     Al2144   1.867       .  S
O2139      C2146   1.243       .  A
O2140     Al2144   1.790       .  S
O2141      C2142   1.294       .  A
C2142      C2910   1.500       .  S
C2143      C2523   1.477       .  S
C2146      C2533   1.509       .  S
C2147      O2148   1.256       .  A
C2147      C3233   1.479       .  S
O2149      C2164   1.260       .  A
O2149     Al2157   1.859       .  S
C2150      O2160   1.254       .  A
C2150      O2151   1.270       .  A
C2150      C2503   1.462       .  S
O2151     Al2153   1.950       .  S
O2152      C2154   1.259       .  A
O2152     Al2153   1.921       .  S
Al2153     O2161   1.917       .  S
Al2153     O2163   1.982       .  S
Al2153     O2162   1.793       .  S
C2154      O2167   1.252       .  A
C2154      C3103   1.469       .  S
O2155      C2165   1.265       .  A
O2155     Al2157   1.922       .  S
O2156      C2169   1.274       .  A
O2156     Al2166   1.926       .  S
Al2157     O2170   1.890       .  S
Al2157     O2167   1.886       .  S
Al2157     O2162   1.777       .  S
O2158      C2165   1.261       .  A
O2158     Al2166   1.902       .  S
O2159      C2168   1.267       .  A
O2159     Al2166   1.944       .  S
O2160     Al2166   1.844       .  S
O2161      C2168   1.265       .  A
O2162     Al2166   1.776       .  S
O2163      C2164   1.279       .  A
C2164      C3173   1.490       .  S
C2165      C3223   1.462       .  S
C2168      C2480   1.522       .  S
C2169      O2170   1.258       .  A
C2169      C2490   1.487       .  S
C2172      O2182   1.259       .  A
C2172      O2173   1.271       .  A
C2172      C2470   1.456       .  S
O2173     Al2175   1.926       .  S
O2174      C2176   1.262       .  A
O2174     Al2175   1.931       .  S
Al2175     O2183   1.942       .  S
Al2175     O2185   1.952       .  S
Al2175     O2184   1.793       .  S
C2176      O2189   1.254       .  A
C2176      C2653   1.482       .  S
O2177      C2187   1.257       .  A
O2177     Al2179   1.902       .  S
O2178     Al2188   1.929       .  S
Al2179     O2189   1.880       .  S
Al2179     O2184   1.778       .  S
O2180      C2187   1.255       .  A
O2180     Al2188   1.886       .  S
O2181      C2190   1.269       .  A
O2181     Al2188   1.916       .  S
O2182     Al2188   1.879       .  S
O2183      C2190   1.266       .  A
O2184     Al2188   1.785       .  S
O2185      C2186   1.277       .  A
C2187      C2770   1.464       .  S
C2190      C2483   1.523       .  S
C2191      O2192   1.258       .  A
C2191      C2463   1.492       .  S
O2193      C2208   1.264       .  A
O2193     Al2201   1.907       .  S
C2194      O2204   1.259       .  A
C2194      O2195   1.272       .  A
C2194      C2643   1.459       .  S
O2195     Al2197   1.937       .  S
O2196      C2198   1.260       .  A
O2196     Al2197   1.925       .  S
Al2197     O2205   1.931       .  S
Al2197     O2207   1.957       .  S
Al2197     O2206   1.789       .  S
C2198      O2211   1.253       .  A
C2198      C2420   1.458       .  S
O2199      C2209   1.255       .  A
O2199     Al2201   1.896       .  S
O2200      C2213   1.267       .  A
O2200     Al2210   1.933       .  S
Al2201     O2214   1.874       .  S
Al2201     O2211   1.881       .  S
Al2201     O2206   1.772       .  S
O2202      C2209   1.257       .  A
O2202     Al2210   1.893       .  S
O2203      C2212   1.270       .  A
O2203     Al2210   1.921       .  S
O2204     Al2210   1.886       .  S
O2205      C2212   1.265       .  A
O2206     Al2210   1.785       .  S
O2207      C2208   1.278       .  A
C2208      C2450   1.489       .  S
C2209      C2440   1.457       .  S
C2212      C2433   1.511       .  S
C2213      O2214   1.256       .  A
C2213      C2633   1.492       .  S
O2215      C2230   1.261       .  A
O2215     Al2223   1.897       .  S
C2216      O2226   1.254       .  A
C2216      O2217   1.267       .  A
C2216      C2693   1.451       .  S
O2217     Al2219   1.921       .  S
O2218      C2220   1.263       .  A
O2218     Al2219   1.932       .  S
Al2219     O2227   1.940       .  S
Al2219     O2229   1.950       .  S
Al2219     O2228   1.791       .  S
C2220      O2233   1.251       .  A
C2220      C2553   1.478       .  S
O2221      C2231   1.258       .  A
O2221     Al2223   1.901       .  S
O2222      C2235   1.261       .  A
O2222     Al2232   1.920       .  S
Al2223     O2236   1.873       .  S
Al2223     O2233   1.867       .  S
Al2223     O2228   1.773       .  S
O2224      C2231   1.261       .  A
O2224     Al2232   1.898       .  S
O2225      C2234   1.270       .  A
O2225     Al2232   1.910       .  S
O2226     Al2232   1.872       .  S
O2227      C2234   1.267       .  A
O2228     Al2232   1.797       .  S
O2229      C2230   1.273       .  A
C2230      C2720   1.489       .  S
C2231      C2580   1.467       .  S
C2234      C2430   1.498       .  S
C2235      O2236   1.252       .  A
C2235      C2680   1.487       .  S
O2237      C2252   1.258       .  A
C2238      O2248   1.272       .  A
C2238      O2239   1.256       .  A
C2238      C2493   1.458       .  S
O2239     Al2241   1.880       .  S
O2240      C2242   1.261       .  A
O2240     Al2241   1.903       .  S
Al2241     O2249   1.898       .  S
Al2241     O2251   1.893       .  S
Al2241     O2250   1.787       .  S
C2242      O2255   1.258       .  A
C2242      C3163   1.468       .  S
O2243      C2253   1.257       .  A
O2243     Al2245   1.888       .  S
O2244      C2257   1.278   1_556  A
O2244     Al2254   1.960       .  S
Al2245     O2255   1.901       .  S
Al2245     O2250   1.766       .  S
O2246      C2253   1.262       .  A
O2246     Al2254   1.929       .  S
O2247      C2256   1.266       .  A
O2247     Al2254   1.947       .  S
O2248     Al2254   1.942       .  S
O2249      C2256   1.263       .  A
O2250     Al2254   1.791       .  S
C2252      C2500   1.449       .  S
C2253      C2520   1.471       .  S
C2256      C2410   1.490       .  S
O2259      C2274   1.257       .  A
O2259     Al2267   1.879       .  S
C2260      O2270   1.271       .  A
C2260      O2261   1.257       .  A
C2260      C2460   1.462       .  S
O2261     Al2263   1.888       .  S
O2262      C2264   1.259       .  A
O2262     Al2263   1.888       .  S
Al2263     O2271   1.904       .  S
Al2263     O2273   1.913       .  S
Al2263     O2272   1.782       .  S
C2264      O2277   1.264       .  A
C2264      C2423   1.483       .  S
O2265      C2275   1.254       .  A
O2265     Al2267   1.892       .  S
O2266      C2279   1.275       .  A
O2266     Al2276   1.947       .  S
Al2267     O2280   1.912       .  S
Al2267     O2277   1.916       .  S
Al2267     O2272   1.769       .  S
O2268      C2275   1.263       .  A
O2268     Al2276   1.931       .  S
O2269      C2278   1.271       .  A
O2269     Al2276   1.957       .  S
O2270     Al2276   1.942       .  S
O2271      C2278   1.265       .  A
O2272     Al2276   1.785       .  S
O2273      C2274   1.258       .  A
C2274      C2473   1.472       .  S
C2275      C2400   1.469       .  S
C2278      C2413   1.504       .  S
C2279      O2280   1.267       .  A
C2279      C2800   1.488       .  S
O2281      C2296   1.262       .  A
O2281     Al2289   1.884       .  S
C2282      O2292   1.248       .  A
C2282      O2283   1.267       .  A
C2282      C2843   1.435       .  S
O2283     Al2285   1.936       .  S
O2284      C2286   1.261       .  A
O2284     Al2285   1.922       .  S
Al2285     O2293   1.933       .  S
Al2285     O2295   1.976       .  S
Al2285     O2294   1.791       .  S
C2286      O2299   1.261       .  A
C2286      C2593   1.495       .  S
O2287      C2297   1.261       .  A
O2287     Al2289   1.898       .  S
O2288      C2301   1.258       .  A
O2288     Al2298   1.887       .  S
Al2289     O2302   1.893       .  S
Al2289     O2299   1.914       .  S
Al2289     O2294   1.770       .  S
O2290      C2297   1.269       .  A
O2290     Al2298   1.955       .  S
O2291      C2300   1.266       .  A
O2291     Al2298   1.930       .  S
O2292     Al2298   1.808       .  S
O2293      C2300   1.269       .  A
O2294     Al2298   1.784       .  S
O2295      C2296   1.277       .  A
C2296      C2983   1.493       .  S
C2297      C2543   1.502       .  S
C2300      C2393   1.498       .  S
C2301      O2302   1.263       .  A
C2301      C2833   1.454       .  S
O2303      C2318   1.266       .  A
O2303     Al2311   1.861       .  S
C2304      O2314   1.245       .  A
C2304      O2305   1.269       .  A
C2304      C2793   1.456       .  S
O2305     Al2307   1.945       .  S
O2306      C2308   1.257       .  A
O2306     Al2307   1.939       .  S
Al2307     O2315   1.914       .  S
Al2307     O2317   2.007       .  S
Al2307     O2316   1.783       .  S
C2308      O2321   1.244       .  A
C2308      C2380   1.483       .  S
O2309      C2319   1.270       .  A
O2309     Al2311   1.897       .  S
O2310      C2323   1.252       .  A
O2310     Al2320   1.893       .  S
Al2311     O2324   1.848       .  S
Al2311     O2321   1.873       .  S
Al2311     O2316   1.787       .  S
O2312      C2319   1.276       .  A
O2312     Al2320   1.943       .  S
O2313      C2322   1.264       .  A
O2313     Al2320   1.907       .  S
O2314     Al2320   1.810       .  S
O2315      C2322   1.264       .  A
O2316     Al2320   1.784       .  S
O2317      C2318   1.289       .  A
C2318      C2863   1.491       .  S
C2319      C2403   1.473       .  S
C2322      C2390   1.499       .  S
C2323      O2324   1.245       .  A
C2323      C2783   1.462       .  S
O2325      C2340   1.251       .  A
C2326      O2336   1.279       .  A
C2326      O2327   1.256       .  A
C2326      C2920   1.473       .  S
O2327     Al2329   1.855       .  S
O2328      C2330   1.258       .  A
O2328     Al2329   1.895       .  S
Al2329     O2337   1.956       .  S
Al2329     O2339   1.937   1_556  S
Al2329     O2338   1.802       .  S
C2330      O2343   1.255       .  A
C2330      C2510   1.473       .  S
O2331      C2341   1.249       .  A
O2331     Al2333   1.894       .  S
O2332      C2345   1.278       .  A
O2332     Al2342   1.954       .  S
Al2333     O2343   1.875       .  S
Al2333     O2338   1.780       .  S
O2334      C2341   1.252       .  A
O2334     Al2342   1.887       .  S
O2335      C2344   1.249       .  A
O2335     Al2342   1.880       .  S
O2336     Al2342   1.942       .  S
O2337      C2344   1.276       .  A
O2338     Al2342   1.788       .  S
C2340      C2933   1.506       .  S
C2341      C3213   1.481       .  S
C2344      C2370   1.504       .  S
O2347      C2362   1.248       .  A
O2347     Al2355   1.866       .  S
C2348      O2358   1.264       .  A
C2348      O2349   1.244       .  A
C2348      C2873   1.451       .  S
O2349     Al2351   1.812       .  S
O2350      C2352   1.276       .  A
O2350     Al2351   1.933       .  S
Al2351     O2359   1.936       .  S
Al2351     O2361   1.910       .  S
Al2351     O2360   1.787       .  S
C2352      O2365   1.271       .  A
C2352      C2383   1.474       .  S
O2353      C2363   1.247       .  A
O2353     Al2355   1.893       .  S
O2354      C2367   1.286       .  A
O2354     Al2364   1.983       .  S
Al2355     O2368   1.872       .  S
Al2355     O2365   1.906       .  S
Al2355     O2360   1.793       .  S
O2356      C2363   1.245       .  A
O2356     Al2364   1.883       .  S
O2357      C2366   1.258       .  A
O2357     Al2364   1.893       .  S
O2358     Al2364   1.921       .  S
O2359      C2366   1.270       .  A
O2360     Al2364   1.783       .  S
O2361      C2362   1.259       .  A
C2362      C2883   1.481       .  S
C2363      C2443   1.469       .  S
C2366      C2373   1.499       .  S
C2367      O2368   1.268       .  A
C2367      C2623   1.484       .  S
C2369      C2370   1.396       .  A
C2369      C2374   1.408       .  A
C2369      H2376   1.083       .  S
C2370      C2371   1.432       .  A
C2371      C2372   1.405       .  A
C2371     Br2378   1.920       .  S
C2372      C2373   1.394       .  A
C2372      H2377   1.084       .  S
C2373      C2374   1.426       .  A
C2374     Br2375   1.912       .  S
C2379      C2380   1.407       .  A
C2379      C2384   1.409       .  A
C2379      H2386   1.083       .  S
C2380      C2381   1.414       .  A
C2381      C2382   1.390       .  A
C2381     Br2388   1.911       .  S
C2382      C2383   1.395       .  A
C2382      H2387   1.085       .  S
C2383      C2384   1.413       .  A
C2384     Br2385   1.920       .  S
C2389      C2390   1.416       .  A
C2389      C2394   1.414       .  A
C2389      H2396   1.083       .  S
C2390      C2391   1.409       .  A
C2391      C2392   1.405       .  A
C2391     Br2398   1.921       .  S
C2392      C2393   1.409       .  A
C2392      H2397   1.081       .  S
C2393      C2394   1.407       .  A
C2394     Br2395   1.914       .  S
C2399      C2400   1.401       .  A
C2399      C2404   1.403       .  A
C2399      H2406   1.084       .  S
C2400      C2401   1.406       .  A
C2401      C2402   1.394       .  A
C2401     Br2408   1.913       .  S
C2402      C2403   1.401       .  A
C2402      H2407   1.084       .  S
C2403      C2404   1.414       .  A
C2404     Br2405   1.919       .  S
C2409      C2410   1.403       .  A
C2409      C2414   1.398   1_565  A
C2409      H2416   1.082       .  S
C2410      C2411   1.407       .  A
C2411      C2412   1.412   1_565  A
C2411     Br2418   1.916       .  S
C2412      C2413   1.415       .  A
C2412      H2417   1.083       .  S
C2413      C2414   1.420       .  A
C2414     Br2415   1.923       .  S
C2419      C2420   1.396       .  A
C2419      C2424   1.394       .  A
C2419      H2426   1.082       .  S
C2420      C2421   1.399       .  A
C2421      C2422   1.396       .  A
C2421     Br2428   1.918       .  S
C2422      C2423   1.412       .  A
C2422      H2427   1.083       .  S
C2423      C2424   1.419       .  A
C2424     Br2425   1.923       .  S
C2429      C2430   1.406       .  A
C2429      C2434   1.407       .  A
C2429      H2436   1.083       .  S
C2430      C2431   1.408       .  A
C2431      C2432   1.412       .  A
C2431     Br2438   1.917       .  S
C2432      C2433   1.416       .  A
C2432      H2437   1.083       .  S
C2433      C2434   1.421       .  A
C2434     Br2435   1.918       .  S
C2439      C2440   1.398       .  A
C2439      C2444   1.392       .  A
C2439      H2446   1.084       .  S
C2440      C2441   1.403       .  A
C2441      C2442   1.398       .  A
C2441     Br2448   1.914       .  S
C2442      C2443   1.406       .  A
C2442      H2447   1.084       .  S
C2443      C2444   1.411       .  A
C2444     Br2445   1.920       .  S
C2449      C2450   1.406       .  A
C2449      C2454   1.408       .  A
C2449      H2456   1.084       .  S
C2450      C2451   1.411       .  A
C2451      C2452   1.411       .  A
C2451     Br2458   1.916       .  S
C2452      C2453   1.407       .  A
C2452      H2457   1.083       .  S
C2453      C2454   1.412       .  A
C2454     Br2455   1.917   1_556  S
C2459      C2460   1.397       .  A
C2459      C2464   1.400       .  A
C2459      H2466   1.085       .  S
C2460      C2461   1.404       .  A
C2461      C2462   1.398       .  A
C2461     Br2468   1.914       .  S
C2462      C2463   1.406       .  A
C2462      H2467   1.083       .  S
C2463      C2464   1.426       .  A
C2469      C2470   1.408       .  A
C2469      C2474   1.400       .  A
C2469      H2476   1.084       .  S
C2470      C2471   1.400       .  A
C2471      C2472   1.392       .  A
C2471     Br2478   1.920       .  S
C2472      C2473   1.408       .  A
C2472      H2477   1.083       .  S
C2473      C2474   1.407       .  A
C2474     Br2475   1.919       .  S
C2479      C2480   1.412       .  A
C2479      C2484   1.411   1_565  A
C2479      H2486   1.080       .  S
C2480      C2481   1.416       .  A
C2481      C2482   1.416   1_565  A
C2481     Br2488   1.917       .  S
C2482      C2483   1.416       .  A
C2482      H2487   1.083       .  S
C2483      C2484   1.420       .  A
C2484     Br2485   1.920       .  S
C2489      C2490   1.406       .  A
C2489      C2494   1.403       .  A
C2489      H2496   1.083       .  S
C2490      C2491   1.422       .  A
C2491      C2492   1.395       .  A
C2491     Br2498   1.927       .  S
C2492      C2493   1.397       .  A
C2492      H2497   1.085       .  S
C2493      C2494   1.409       .  A
C2494     Br2495   1.916       .  S
C2499      C2500   1.407       .  A
C2499      C2504   1.400       .  A
C2499      H2506   1.082       .  S
C2500      C2501   1.394       .  A
C2501      C2502   1.381       .  A
C2501     Br2508   1.921       .  S
C2502      C2503   1.409       .  A
C2502      H2507   1.084       .  S
C2503      C2504   1.402       .  A
C2504     Br2505   1.916       .  S
C2509      C2510   1.406       .  A
C2509      C2514   1.392       .  A
C2509      H2516   1.083       .  S
C2510      C2511   1.412       .  A
C2511      C2512   1.395       .  A
C2511     Br2518   1.922       .  S
C2512      C2513   1.404       .  A
C2512      H2517   1.084       .  S
C2513      C2514   1.406       .  A
C2514     Br2515   1.919       .  S
C2519      C2520   1.399       .  A
C2519      C2524   1.396       .  A
C2519      H2526   1.083       .  S
C2520      C2521   1.408       .  A
C2521      C2522   1.396       .  A
C2521     Br2528   1.912       .  S
C2522      C2523   1.403       .  A
C2522      H2527   1.084       .  S
C2523      C2524   1.417       .  A
C2524     Br2525   1.922       .  S
C2529      C2530   1.401       .  A
C2529      C2534   1.414       .  A
C2529      H2536   1.083       .  S
C2531      C2532   1.407       .  A
C2531     Br2538   1.916       .  S
C2532      C2533   1.396       .  A
C2532      H2537   1.084       .  S
C2534     Br2535   1.923       .  S
C2539      C2540   1.401       .  A
C2539      C2544   1.401       .  A
C2539      H2546   1.084       .  S
C2540      C2541   1.407       .  A
C2541      C2542   1.406       .  A
C2541     Br2548   1.919       .  S
C2542      C2543   1.413       .  A
C2542      H2547   1.081       .  S
C2543      C2544   1.421       .  A
C2544     Br2545   1.923       .  S
C2549      C2550   1.405       .  A
C2549      C2554   1.395       .  A
C2549      H2556   1.085       .  S
C2550      C2551   1.403       .  A
C2551      C2552   1.400       .  A
C2551     Br2558   1.919       .  S
C2552      C2553   1.411       .  A
C2552      H2557   1.084       .  S
C2553      C2554   1.408       .  A
C2554     Br2555   1.921       .  S
C2559      C2560   1.406       .  A
C2559      C2564   1.393       .  A
C2559      H2566   1.083       .  S
C2560      C2561   1.418       .  A
C2561      C2562   1.405       .  A
C2561     Br2568   1.920       .  S
C2562      C2563   1.401       .  A
C2562      H2567   1.084       .  S
C2563      C2564   1.404       .  A
C2564     Br2565   1.920       .  S
C2569      C2570   1.419       .  A
C2569      C2574   1.418   1_565  A
C2569      H2576   1.083       .  S
C2570      C2571   1.415       .  A
C2571      C2572   1.410   1_565  A
C2571     Br2578   1.919       .  S
C2572      C2573   1.415       .  A
C2572      H2577   1.079       .  S
C2573      C2574   1.413       .  A
C2574     Br2575   1.916       .  S
C2579      C2580   1.403       .  A
C2579      C2584   1.399       .  A
C2579      H2586   1.084       .  S
C2580      C2581   1.409       .  A
C2581      C2582   1.394       .  A
C2581     Br2588   1.919       .  S
C2582      C2583   1.401       .  A
C2582      H2587   1.084       .  S
C2583      C2584   1.408       .  A
C2584     Br2585   1.916       .  S
C2589      C2590   1.404       .  A
C2589      C2594   1.408       .  A
C2589      H2596   1.082       .  S
C2590      C2591   1.409       .  A
C2591      C2592   1.397       .  A
C2591     Br2598   1.915       .  S
C2592      C2593   1.406       .  A
C2592      H2597   1.084       .  S
C2593      C2594   1.417       .  A
C2594     Br2595   1.915       .  S
C2599      C2600   1.410       .  A
C2599      C2604   1.402       .  A
C2599      H2606   1.083       .  S
C2600      C2601   1.418       .  A
C2601      C2602   1.419       .  A
C2601     Br2608   1.917       .  S
C2602      C2603   1.415       .  A
C2602      H2607   1.083       .  S
C2603      C2604   1.420       .  A
C2604     Br2605   1.920       .  S
C2609      C2610   1.409       .  A
C2609      C2614   1.398       .  A
C2609      H2616   1.082       .  S
C2610      C2611   1.412       .  A
C2611      C2612   1.398       .  A
C2611     Br2618   1.915       .  S
C2612      C2613   1.401       .  A
C2612      H2617   1.084       .  S
C2613      C2614   1.403       .  A
C2614     Br2615   1.918       .  S
C2619      C2620   1.402       .  A
C2619      C2624   1.404       .  A
C2619      H2626   1.084       .  S
C2620      C2621   1.413       .  A
C2621      C2622   1.403       .  A
C2621     Br2628   1.918       .  S
C2622      C2623   1.403       .  A
C2622      H2627   1.084       .  S
C2623      C2624   1.415       .  A
C2624     Br2625   1.920       .  S
C2629      C2630   1.397       .  A
C2629      C2634   1.394       .  A
C2629      H2636   1.082       .  S
C2630      C2631   1.404       .  A
C2631      C2632   1.404       .  A
C2632      C2633   1.412       .  A
C2632      H2637   1.083       .  S
C2633      C2634   1.421       .  A
C2634     Br2635   1.927       .  S
C2639      C2640   1.407       .  A
C2639      C2644   1.401       .  A
C2639      H2646   1.083       .  S
C2640      C2641   1.425       .  A
C2641      C2642   1.395       .  A
C2641     Br2648   1.922       .  S
C2642      C2643   1.395       .  A
C2642      H2647   1.085       .  S
C2643      C2644   1.406       .  A
C2644     Br2645   1.912       .  S
C2649      C2650   1.399       .  A
C2649      C2654   1.397       .  A
C2649      H2656   1.084       .  S
C2650      C2651   1.400       .  A
C2651      C2652   1.397       .  A
C2651     Br2658   1.919       .  S
C2652      C2653   1.412       .  A
C2652      H2657   1.083       .  S
C2653      C2654   1.414       .  A
C2654     Br2655   1.921       .  S
C2659      C2660   1.415       .  A
C2659      C2664   1.414   1_556  A
C2659      H2666   1.083       .  S
C2661      C2662   1.405       .  A
C2661     Br2668   1.921       .  S
C2662      C2663   1.402       .  A
C2662      H2667   1.083       .  S
C2664     Br2665   1.917       .  S
C2669      C2670   1.407       .  A
C2669      C2674   1.411       .  A
C2669      H2676   1.084       .  S
C2670      C2671   1.412       .  A
C2671      C2672   1.408       .  A
C2671     Br2678   1.920       .  S
C2672      C2673   1.406       .  A
C2672      H2677   1.080       .  S
C2673      C2674   1.414       .  A
C2674     Br2675   1.917       .  S
C2679      C2680   1.409       .  A
C2679      C2684   1.399       .  A
C2679      H2686   1.083       .  S
C2680      C2681   1.421       .  A
C2681      C2682   1.393       .  A
C2681     Br2688   1.918       .  S
C2682      C2683   1.395       .  A
C2682      H2687   1.085       .  S
C2683      C2684   1.404       .  A
C2684     Br2685   1.914       .  S
C2689      C2690   1.409       .  A
C2689      C2694   1.388       .  A
C2689      H2696   1.083       .  S
C2690      C2691   1.407       .  A
C2691      C2692   1.400       .  A
C2691     Br2698   1.920       .  S
C2692      C2693   1.407       .  A
C2692      H2697   1.084       .  S
C2693      C2694   1.400       .  A
C2694     Br2695   1.922       .  S
C2699      C2700   1.405       .  A
C2699      C2704   1.401       .  A
C2699      H2706   1.084       .  S
C2700      C2701   1.401       .  A
C2701      C2702   1.394       .  A
C2701     Br2708   1.920       .  S
C2702      C2703   1.407   1_655  A
C2702      H2707   1.083   1_655  S
C2703      C2704   1.412   1_455  A
C2704     Br2705   1.919       .  S
C2709      C2710   1.409       .  A
C2709      C2714   1.404       .  A
C2709      H2716   1.083       .  S
C2710      C2711   1.419       .  A
C2711      C2712   1.396       .  A
C2711     Br2718   1.925   1_455  S
C2712      C2713   1.399       .  A
C2712      H2717   1.084       .  S
C2713      C2714   1.406       .  A
C2714     Br2715   1.916       .  S
C2719      C2720   1.405       .  A
C2719      C2724   1.410       .  A
C2719      H2726   1.083       .  S
C2720      C2721   1.413       .  A
C2721      C2722   1.404       .  A
C2721     Br2728   1.917       .  S
C2722      C2723   1.405       .  A
C2722      H2727   1.084       .  S
C2723      C2724   1.416       .  A
C2724     Br2725   1.919       .  S
C2729      C2730   1.401       .  A
C2729      C2734   1.405       .  A
C2729      H2736   1.084       .  S
C2730      C2731   1.404       .  A
C2731      C2732   1.392       .  A
C2731     Br2738   1.908       .  S
C2732      C2733   1.401       .  A
C2732      H2737   1.084       .  S
C2733      C2734   1.414       .  A
C2734     Br2735   1.916   1_556  S
C2739      C2740   1.412       .  A
C2739      C2744   1.405       .  A
C2739      H2746   1.083       .  S
C2740      C2741   1.414       .  A
C2741      C2742   1.416   1_545  A
C2741     Br2748   1.917       .  S
C2742      C2743   1.416       .  A
C2742      H2747   1.083       .  S
C2743      C2744   1.420   1_565  A
C2744     Br2745   1.924       .  S
C2749      C2750   1.402       .  A
C2749      C2754   1.403       .  A
C2749      H2756   1.083       .  S
C2750      C2751   1.436       .  A
C2751      C2752   1.378   1_655  A
C2751     Br2758   1.926   1_655  S
C2752      C2753   1.379       .  A
C2752      H2757   1.086       .  S
C2753      C2754   1.410   1_455  A
C2759      C2760   1.397       .  A
C2759      C2764   1.371   1_655  A
C2759      H2766   1.085       .  S
C2760      C2761   1.413   1_655  A
C2761      C2762   1.401       .  A
C2761     Br2768   1.918       .  S
C2762      C2763   1.404       .  A
C2762      H2767   1.083       .  S
C2763      C2764   1.409       .  A
C2764     Br2765   1.923   1_455  S
C2769      C2770   1.397       .  A
C2769      C2774   1.397       .  A
C2769      H2776   1.084       .  S
C2770      C2771   1.408       .  A
C2771      C2772   1.391       .  A
C2772      C2773   1.402       .  A
C2772      H2777   1.083       .  S
C2773      C2774   1.421       .  A
C2774     Br2775   1.921       .  S
C2779      C2780   1.417       .  A
C2779      C2784   1.391       .  A
C2779      H2786   1.082       .  S
C2780      C2781   1.398       .  A
C2781      C2782   1.386       .  A
C2782      C2783   1.412       .  A
C2782      H2787   1.081       .  S
C2783      C2784   1.397       .  A
C2784     Br2785   1.920       .  S
C2789      C2790   1.396       .  A
C2789      C2794   1.395       .  A
C2789      H2796   1.084       .  S
C2790      C2791   1.429       .  A
C2791      C2792   1.392       .  A
C2791     Br2798   1.919       .  S
C2792      C2793   1.387       .  A
C2792      H2797   1.085       .  S
C2793      C2794   1.415       .  A
C2794     Br2795   1.910       .  S
C2799      C2800   1.406       .  A
C2799      C2804   1.405       .  A
C2799      H2806   1.084       .  S
C2800      C2801   1.410       .  A
C2801      C2802   1.411       .  A
C2801     Br2808   1.918       .  S
C2802      C2803   1.408       .  A
C2802      H2807   1.083       .  S
C2803      C2804   1.408       .  A
C2804     Br2805   1.913       .  S
C2809      C2810   1.408       .  A
C2809      C2814   1.398       .  A
C2809      H2816   1.084       .  S
C2810      C2811   1.407   1_556  A
C2811      C2812   1.397       .  A
C2811     Br2818   1.919       .  S
C2812      C2813   1.405   1_554  A
C2812      H2817   1.081       .  S
C2813      C2814   1.406       .  A
C2814     Br2815   1.915   1_655  S
C2819      C2820   1.403       .  A
C2819      C2824   1.413       .  A
C2819      H2826   1.083       .  S
C2820      C2821   1.420       .  A
C2821      C2822   1.413       .  A
C2821     Br2828   1.915       .  S
C2822      C2823   1.403       .  A
C2822      H2827   1.083       .  S
C2823      C2824   1.420       .  A
C2824     Br2825   1.917       .  S
C2829      C2830   1.402       .  A
C2829      C2834   1.404       .  A
C2829      H2836   1.082       .  S
C2830      C2831   1.436       .  A
C2831      C2832   1.386       .  A
C2832      C2833   1.383       .  A
C2832      H2837   1.085       .  S
C2833      C2834   1.409       .  A
C2834     Br2835   1.913       .  S
C2839      C2840   1.394       .  A
C2839      C2844   1.381       .  A
C2839      H2846   1.084       .  S
C2840      C2841   1.426       .  A
C2841      C2842   1.385       .  A
C2841     Br2848   1.929       .  S
C2842      C2843   1.385       .  A
C2842      H2847   1.081       .  S
C2843      C2844   1.411       .  A
C2844     Br2845   1.916       .  S
C2849      C2854   1.413       .  A
C2849      H2856   1.082       .  S
C2850      C2851   1.402       .  A
C2851      C2852   1.403       .  A
C2851     Br2858   1.921       .  S
C2852      H2857   1.076       .  S
C2853      C2854   1.402       .  A
C2854     Br2855   1.912       .  S
C2859      C2860   1.402       .  A
C2859      C2864   1.405       .  A
C2859      H2866   1.083       .  S
C2860      C2861   1.410       .  A
C2861      C2862   1.410       .  A
C2861     Br2868   1.919       .  S
C2862      C2863   1.405       .  A
C2862      H2867   1.083       .  S
C2863      C2864   1.415       .  A
C2864     Br2865   1.921       .  S
C2869      C2870   1.392       .  A
C2869      C2874   1.386       .  A
C2869      H2876   1.084       .  S
C2870      C2871   1.420       .  A
C2871      C2872   1.392       .  A
C2872      C2873   1.391       .  A
C2872      H2877   1.084       .  S
C2873      C2874   1.414       .  A
C2874     Br2875   1.917       .  S
C2879      C2880   1.420       .  A
C2879      C2884   1.403       .  A
C2879      H2886   1.069       .  S
C2880      C2881   1.392       .  A
C2881      C2882   1.393       .  A
C2881     Br2888   1.919       .  S
C2882      C2883   1.416       .  A
C2882      H2887   1.053       .  S
C2883      C2884   1.398       .  A
C2884     Br2885   1.918       .  S
C2889      C2890   1.409       .  A
C2889      C2894   1.395       .  A
C2889      H2896   1.083       .  S
C2890      C2891   1.413       .  A
C2891      C2892   1.406       .  A
C2891     Br2898   1.918       .  S
C2892      C2893   1.405       .  A
C2892      H2897   1.084       .  S
C2893      C2894   1.402       .  A
C2894     Br2895   1.918       .  S
C2899      C2900   1.405       .  A
C2899      C2904   1.398       .  A
C2899      H2906   1.084       .  S
C2900      C2901   1.406       .  A
C2901      C2902   1.401       .  A
C2901     Br2908   1.920       .  S
C2902      C2903   1.412       .  A
C2902      H2907   1.083       .  S
C2903      C2904   1.416       .  A
C2904     Br2905   1.923       .  S
C2909      C2910   1.410       .  A
C2909      C2914   1.415       .  A
C2909      H2916   1.084       .  S
C2910      C2911   1.415       .  A
C2911      C2912   1.411       .  A
C2911     Br2918   1.916       .  S
C2912      C2913   1.405       .  A
C2912      H2917   1.083       .  S
C2913      C2914   1.414       .  A
C2914     Br2915   1.918       .  S
C2919      C2920   1.396       .  A
C2919      C2924   1.397       .  A
C2919      H2926   1.084       .  S
C2920      C2921   1.424       .  A
C2921      C2922   1.388       .  A
C2921     Br2928   1.924       .  S
C2922      C2923   1.392       .  A
C2922      H2927   1.084       .  S
C2923      C2924   1.420       .  A
C2924     Br2925   1.921       .  S
C2929      C2930   1.398       .  A
C2929      C2934   1.398       .  A
C2929      H2936   1.085       .  S
C2930      C2931   1.405       .  A
C2931      C2932   1.409       .  A
C2931     Br2938   1.912       .  S
C2932      C2933   1.412       .  A
C2932      H2937   1.083       .  S
C2933      C2934   1.426       .  A
C2934     Br2935   1.924       .  S
C2939      C2940   1.412       .  A
C2939      C2944   1.402       .  A
C2939      H2946   1.083       .  S
C2940      C2941   1.419       .  A
C2941      C2942   1.409       .  A
C2941     Br2948   1.919       .  S
C2942      C2943   1.407       .  A
C2942      H2947   1.083       .  S
C2943      C2944   1.407       .  A
C2944     Br2945   1.918       .  S
C2949      C2950   1.404       .  A
C2949      C2954   1.409       .  A
C2949      H2956   1.084       .  S
C2950      C2951   1.415       .  A
C2951      C2952   1.411       .  A
C2951     Br2958   1.919       .  S
C2952      C2953   1.405       .  A
C2952      H2957   1.083       .  S
C2953      C2954   1.416       .  A
C2954     Br2955   1.918       .  S
C2959      C2960   1.406       .  A
C2959      C2964   1.392       .  A
C2959      H2966   1.082       .  S
C2960      C2961   1.401       .  A
C2961      C2962   1.398       .  A
C2961     Br2968   1.917       .  S
C2962      C2963   1.409       .  A
C2962      H2967   1.083       .  S
C2963      C2964   1.397       .  A
C2964     Br2965   1.918       .  S
C2969      C2970   1.412       .  A
C2969      C2974   1.404       .  A
C2969      H2976   1.084       .  S
C2970      C2971   1.400       .  A
C2971      C2972   1.399       .  A
C2971     Br2978   1.912       .  S
C2972      C2973   1.407       .  A
C2972      H2977   1.083       .  S
C2973      C2974   1.406       .  A
C2979      C2980   1.404       .  A
C2979      C2984   1.407       .  A
C2979      H2986   1.084       .  S
C2980      C2981   1.413       .  A
C2981      C2982   1.406       .  A
C2981     Br2988   1.919       .  S
C2982      C2983   1.406       .  A
C2982      H2987   1.084       .  S
C2983      C2984   1.415       .  A
C2984     Br2985   1.920       .  S
C2989      C2990   1.406       .  A
C2989      C2994   1.391       .  A
C2989      H2996   1.082       .  S
C2990      C2991   1.397       .  A
C2991      C2992   1.398       .  A
C2992      C2993   1.407       .  A
C2992      H2997   1.081       .  S
C2993      C2994   1.398       .  A
C2994     Br2995   1.920       .  S
C2999      C3000   1.410       .  A
C2999      C3004   1.401       .  A
C2999      H3006   1.084       .  S
C3000      C3001   1.397       .  A
C3001      C3002   1.387       .  A
C3001     Br3008   1.924       .  S
C3002      C3003   1.413       .  A
C3002      H3007   1.082       .  S
C3003      C3004   1.406       .  A
C3004     Br3005   1.918       .  S
C3009      C3010   1.400       .  A
C3009      C3014   1.396       .  A
C3009      H3016   1.084       .  S
C3010      C3011   1.418       .  A
C3011      C3012   1.394       .  A
C3011     Br3018   1.925       .  S
C3012      C3013   1.400       .  A
C3012      H3017   1.084       .  S
C3013      C3014   1.419       .  A
C3014     Br3015   1.923       .  S
C3019      C3020   1.406       .  A
C3019      C3024   1.404       .  A
C3019      H3026   1.083       .  S
C3020      C3021   1.416       .  A
C3021      C3022   1.412       .  A
C3021     Br3028   1.918       .  S
C3022      C3023   1.411       .  A
C3022      H3027   1.083       .  S
C3023      C3024   1.422       .  A
C3024     Br3025   1.919       .  S
C3029      C3030   1.402       .  A
C3029      C3034   1.403       .  A
C3029      H3036   1.084       .  S
C3030      C3031   1.406       .  A
C3031      C3032   1.393       .  A
C3031     Br3038   1.918       .  S
C3032      C3033   1.406       .  A
C3032      H3037   1.083       .  S
C3033      C3034   1.420       .  A
C3034     Br3035   1.924       .  S
C3039      C3040   1.409       .  A
C3039      C3044   1.397       .  A
C3039      H3046   1.083       .  S
C3040      C3041   1.412       .  A
C3041      C3042   1.393       .  A
C3041     Br3048   1.922       .  S
C3042      C3043   1.398       .  A
C3042      H3047   1.082       .  S
C3043      C3044   1.400       .  A
C3044     Br3045   1.911       .  S
C3049      C3050   1.407       .  A
C3049      C3054   1.412       .  A
C3049      H3056   1.083       .  S
C3050      C3051   1.411       .  A
C3051      C3052   1.404       .  A
C3051     Br3058   1.914       .  S
C3052      C3053   1.403       .  A
C3052      H3057   1.084       .  S
C3053      C3054   1.413       .  A
C3059      C3060   1.409       .  A
C3059      C3064   1.401       .  A
C3059      H3066   1.083       .  S
C3060      C3061   1.418       .  A
C3061      C3062   1.399       .  A
C3061     Br3068   1.920       .  S
C3062      C3063   1.400       .  A
C3062      H3067   1.084       .  S
C3063      C3064   1.407       .  A
C3064     Br3065   1.920       .  S
C3069      C3070   1.402       .  A
C3069      C3074   1.405       .  A
C3069      H3076   1.084       .  S
C3070      C3071   1.412       .  A
C3071      C3072   1.407       .  A
C3071     Br3078   1.916       .  S
C3072      C3073   1.403       .  A
C3072      H3077   1.084       .  S
C3073      C3074   1.414       .  A
C3074     Br3075   1.918       .  S
C3079      C3080   1.398       .  A
C3079      C3084   1.391       .  A
C3079      H3086   1.084       .  S
C3080      C3081   1.409       .  A
C3081      C3082   1.402       .  A
C3081     Br3088   1.919       .  S
C3082      C3083   1.409       .  A
C3082      H3087   1.083       .  S
C3083      C3084   1.421       .  A
C3084     Br3085   1.926       .  S
C3089      C3090   1.413       .  A
C3089      C3094   1.411       .  A
C3089      H3096   1.083       .  S
C3090      C3091   1.416       .  A
C3091      C3092   1.398       .  A
C3091     Br3098   1.919       .  S
C3092      C3093   1.405       .  A
C3092      H3097   1.082       .  S
C3093      C3094   1.411       .  A
C3094     Br3095   1.917       .  S
C3099      C3100   1.403       .  A
C3099      C3104   1.394       .  A
C3099      H3106   1.084       .  S
C3100      C3101   1.421       .  A
C3101      C3102   1.403       .  A
C3101     Br3108   1.921       .  S
C3102      C3103   1.399       .  A
C3102      H3107   1.084       .  S
C3103      C3104   1.403       .  A
C3104     Br3105   1.906       .  S
C3109      C3110   1.400       .  A
C3109      C3114   1.397       .  A
C3109      H3116   1.084       .  S
C3110      C3111   1.411       .  A
C3111      C3112   1.401       .  A
C3111     Br3118   1.920       .  S
C3112      C3113   1.409       .  A
C3112      H3117   1.083       .  S
C3113      C3114   1.419       .  A
C3114     Br3115   1.924       .  S
C3119      C3120   1.405       .  A
C3119      C3124   1.410       .  A
C3119      H3126   1.084       .  S
C3120      C3121   1.411       .  A
C3121      C3122   1.406       .  A
C3121     Br3128   1.919       .  S
C3122      C3123   1.405       .  A
C3122      H3127   1.080       .  S
C3123      C3124   1.413       .  A
C3124     Br3125   1.917       .  S
C3129      C3130   1.409       .  A
C3129      C3134   1.393       .  A
C3129      H3136   1.083       .  S
C3130      C3131   1.410       .  A
C3131      C3132   1.402       .  A
C3131     Br3138   1.919       .  S
C3132      C3133   1.407       .  A
C3132      H3137   1.084       .  S
C3133      C3134   1.400       .  A
C3134     Br3135   1.921       .  S
C3139      C3140   1.408       .  A
C3139      C3144   1.395       .  A
C3139      H3146   1.083       .  S
C3140      C3141   1.407       .  A
C3141      C3142   1.398       .  A
C3141     Br3148   1.919       .  S
C3142      C3143   1.409       .  A
C3142      H3147   1.085       .  S
C3143      C3144   1.400       .  A
C3144     Br3145   1.917       .  S
C3149      C3150   1.400       .  A
C3149      C3154   1.392       .  A
C3149      H3156   1.078       .  S
C3150      C3151   1.412       .  A
C3151      C3152   1.397       .  A
C3151     Br3158   1.923       .  S
C3152      C3153   1.403       .  A
C3152      H3157   1.083       .  S
C3153      C3154   1.408       .  A
C3154     Br3155   1.921       .  S
C3159      C3160   1.412       .  A
C3159      C3164   1.400       .  A
C3159      H3166   1.083       .  S
C3160      C3161   1.416       .  A
C3161      C3162   1.397       .  A
C3161     Br3168   1.921       .  S
C3162      C3163   1.399       .  A
C3162      H3167   1.084       .  S
C3163      C3164   1.404       .  A
C3164     Br3165   1.918       .  S
C3169      C3170   1.401       .  A
C3169      C3174   1.397       .  A
C3169      H3176   1.082       .  S
C3170      C3171   1.408       .  A
C3171      C3172   1.410       .  A
C3171     Br3178   1.915       .  S
C3172      C3173   1.406       .  A
C3172      H3177   1.078       .  S
C3173      C3174   1.413       .  A
C3174     Br3175   1.923       .  S
C3179      C3180   1.407       .  A
C3179      C3184   1.398       .  A
C3179      H3186   1.083       .  S
C3180      C3181   1.423       .  A
C3181      C3182   1.398       .  A
C3181     Br3188   1.923       .  S
C3182      C3183   1.397       .  A
C3182      H3187   1.085       .  S
C3183      C3184   1.405       .  A
C3184     Br3185   1.917       .  S
C3189      C3190   1.406       .  A
C3189      C3194   1.400       .  A
C3189      H3196   1.084       .  S
C3190      C3191   1.398       .  A
C3191      C3192   1.388       .  A
C3191     Br3198   1.921       .  S
C3192      C3193   1.408       .  A
C3192      H3197   1.082       .  S
C3193      C3194   1.411       .  A
C3194     Br3195   1.920       .  S
C3199      C3204   1.408       .  A
C3199      H3206   1.083       .  S
C3200      C3201   1.409       .  A
C3201      C3202   1.411   1_556  A
C3201     Br3208   1.916       .  S
C3202      H3207   1.083       .  S
C3203      C3204   1.422       .  A
C3204     Br3205   1.920       .  S
C3209      C3210   1.402       .  A
C3209      C3214   1.404       .  A
C3209      H3216   1.084       .  S
C3210      C3211   1.404       .  A
C3211      C3212   1.387       .  A
C3211     Br3218   1.918       .  S
C3212      C3213   1.404       .  A
C3212      H3217   1.083       .  S
C3213      C3214   1.417       .  A
C3214     Br3215   1.921       .  S
C3219      C3220   1.410       .  A
C3219      C3224   1.403       .  A
C3219      H3226   1.083       .  S
C3220      C3221   1.412       .  A
C3221      C3222   1.393       .  A
C3221     Br3228   1.921       .  S
C3222      C3223   1.400       .  A
C3222      H3227   1.085       .  S
C3223      C3224   1.403       .  A
C3224     Br3225   1.918       .  S
C3229      C3230   1.410       .  A
C3229      C3234   1.396       .  A
C3229      H3236   1.084       .  S
C3230      C3231   1.401       .  A
C3231      C3232   1.391       .  A
C3231     Br3238   1.918       .  S
C3232      C3233   1.413       .  A
C3232      H3237   1.083       .  S
C3233      C3234   1.408       .  A
C3234     Br3235   1.921       .  S
C3239      C3240   1.406       .  A
C3239      C3244   1.401       .  A
C3239      H3246   1.077       .  S
C3240      C3241   1.403       .  A
C3241      C3242   1.399       .  A
C3241     Br3248   1.916       .  S
C3242      C3243   1.413       .  A
C3242      H3247   1.082       .  S
C3243      C3244   1.413       .  A
C3244     Br3245   1.921       .  S
C3249      C3250   1.411       .  A
C3249      C3254   1.415       .  A
C3249      H3256   1.083       .  S
C3250      C3251   1.408       .  A
C3251      C3252   1.402       .  A
C3251     Br3258   1.920       .  S
C3252      C3253   1.408       .  A
C3252      H3257   1.082       .  S
C3253      C3254   1.410       .  A
C3259      C3260   1.413       .  A
C3259      C3264   1.397       .  A
C3259      H3266   1.083       .  S
C3260      C3261   1.417       .  A
C3261      C3262   1.398       .  A
C3261     Br3268   1.922       .  S
C3262      C3263   1.400       .  A
C3262      H3267   1.084       .  S
C3263      C3264   1.400       .  A
C3264     Br3265   1.919       .  S
C3269      C3270   1.410       .  A
C3269      C3274   1.391       .  A
C3269      H3276   1.083       .  S
C3270      C3271   1.411       .  A
C3271      C3272   1.389       .  A
C3271     Br3278   1.923       .  S
C3272      C3273   1.398       .  A
C3272      H3277   1.085       .  S
C3273      C3274   1.398       .  A
C3274     Br3275   1.919   1_655  S
C3279      C3280   1.408       .  A
C3279      C3284   1.413       .  A
C3279      H3286   1.083       .  S
C3280      C3281   1.412       .  A
C3281      C3282   1.404       .  A
C3281     Br3288   1.913       .  S
C3282      C3283   1.404       .  A
C3282      H3287   1.084       .  S
C3283      C3284   1.411       .  A
C3289      C3290   1.406       .  A
C3289      C3294   1.396       .  A
C3289      H3296   1.079       .  S
C3290      C3291   1.400       .  A
C3291      C3292   1.395       .  A
C3291     Br3298   1.919       .  S
C3292      C3293   1.413       .  A
C3292      H3297   1.082       .  S
C3293      C3294   1.409       .  A
C3294     Br3295   1.920       .  S
C3299      C3300   1.392       .  A
C3299      C3304   1.392       .  A
C3299      H3306   1.083       .  S
C3300      C3301   1.429       .  A
C3301      C3302   1.392       .  A
C3302      C3303   1.390       .  A
C3302      H3307   1.084       .  S
C3303      C3304   1.423       .  A
C3304     Br3305   1.921       .  S
C3309      C3310   1.397       .  A
C3309      C3314   1.408       .  A
C3309      H3316   1.083       .  S
C3310      C3311   1.432       .  A
C3311      C3312   1.412       .  A
C3311     Br3318   1.925       .  S
C3312      C3313   1.399       .  A
C3312      H3317   1.083       .  S
C3313      C3314   1.428       .  A
C3314     Br3315   1.916       .  S
C3319      C3320   1.399       .  A
C3319      C3324   1.397       .  A
C3319      H3326   1.083       .  S
C3320      C3321   1.408       .  A
C3321      C3322   1.401       .  A
C3321     Br3328   1.920       .  S
C3322      C3323   1.409       .  A
C3322      H3327   1.083       .  S
C3323      C3324   1.421       .  A
C3324     Br3325   1.925       .  S
