geometry optimzed in LAMMPS
_audit_creation_date              2020-11-30 
_audit_creation_method            'lammps2cif' 
_symmetry_space_group_name_H-M    'P1' 
_symmetry_Int_Tables_number       1 
_symmetry_cell_setting            triclinic 
loop_ 
_symmetry_equiv_pos_as_xyz 
  x,y,z 
_cell_length_a                    39.43392688 
_cell_length_b                    39.42109431329082 
_cell_length_c                    41.759293911090836 
_cell_angle_alpha                 89.89046207927376 
_cell_angle_beta                  89.80749686028001 
_cell_angle_gamma                 120.88468150805038 
loop_ 
_atom_site_label 
_atom_site_type_symbol 
_atom_site_fract_x 
_atom_site_fract_y 
_atom_site_fract_z 
_atom_site_charge 
O1          O  0.25087213  0.48033121  0.64870220    -0.81400
C2          C  0.37669562  0.53974335  0.56369758     0.97900
O3          O  0.35737417  0.55585436  0.57253307    -0.70600
O4          O  0.28036117  0.51312645  0.57607188    -0.74200
Al5        Al  0.32016412  0.54642915  0.60544925     1.49000
C6          C  0.25792471  0.47654402  0.57142771     0.93200
O7          O  0.30225156  0.42771030  0.61642972    -0.80400
O8          O  0.36463378  0.51450192  0.67320701    -0.73900
Al9        Al  0.28257196  0.46024903  0.63182773     1.90100
O10         O  0.36353367  0.46419579  0.62957420    -0.73000
O11         O  0.40326242  0.57251218  0.62947593    -0.72900
O12         O  0.38303311  0.51843194  0.58294513    -0.78500
O13         O  0.35867507  0.58832778  0.63197010    -0.76700
O14         O  0.32491265  0.50739170  0.62172612    -1.12900
O15         O  0.28261948  0.54278408  0.63532190    -0.72000
C16         C  0.25383671  0.51371342  0.64875813     0.98700
C17         C  0.33531207  0.43151938  0.62129233     0.95100
Al18       Al  0.37355143  0.51629329  0.62835339     1.55600
O19         O  0.25774894  0.45166567  0.59063556    -0.76700
C20         C  0.39448176  0.59857044  0.63287645     0.99200
C21         C  0.33428947  0.48914281  0.68896087     0.94100
O22         O  0.30286674  0.46382589  0.67452189    -0.82000
O23         O  0.22825219  0.72422264  0.63322645    -0.81400
C24         C  0.12333500  0.60040754  0.56131677     0.97900
O25         O  0.15861716  0.62868859  0.56159535    -0.70600
O26         O  0.21763505  0.69884255  0.57463219    -0.74200
Al27       Al  0.19284975  0.64881896  0.59613277     1.49000
C28         C  0.20364719  0.71973834  0.56574929     0.93200
O29         O  0.11700968  0.69457324  0.62662664    -0.80400
O30         O  0.11454672  0.63275579  0.67290406    -0.73900
Al31       Al  0.17113691  0.70432144  0.62831788     1.90100
O32         O  0.08250470  0.63188616  0.61389287    -0.73000
O33         O  0.13818173  0.58706784  0.64960313    -0.72900
O34         O  0.10455391  0.58629672  0.58770694    -0.78500
O35         O  0.17857259  0.59705044  0.61053189    -0.76700
O36         O  0.15849932  0.65522109  0.61823018    -1.12900
O37         O  0.22891254  0.66918897  0.62998820    -0.72000
C38         C  0.24679365  0.70563045  0.63594005     0.98700
C39         C  0.08467546  0.66438210  0.61826445     0.95100
Al40       Al  0.11342997  0.61283789  0.63008258     1.55600
O41         O  0.17804709  0.72107624  0.58341856    -0.76700
C42         C  0.16258955  0.58016113  0.63642961     0.99200
C43         C  0.14012242  0.66336748  0.68786379     0.94100
O44         O  0.16651630  0.69290782  0.67259648    -0.82000
O45         O  0.52334265  0.79379461  0.63241852    -0.81400
C46         C  0.47243455  0.88535223  0.56708874     0.97900
O47         O  0.46026039  0.84914746  0.56295359    -0.70600
O48         O  0.51866233  0.83977956  0.54956441    -0.74200
Al49       Al  0.47776553  0.81522986  0.57913036     1.49000
C50         C  0.54845749  0.83618692  0.54987650     0.93200
O51         O  0.58444048  0.90387622  0.60999081    -0.80400
O52         O  0.49260366  0.85439148  0.66962540    -0.73900
Al53       Al  0.55227174  0.84837562  0.62013548     1.90100
O54         O  0.54577617  0.92023754  0.63545177    -0.73000
O55         O  0.43627179  0.83884389  0.62855626    -0.72900
O56         O  0.49205290  0.90305412  0.59155133    -0.78500
O57         O  0.43399776  0.78806825  0.60613074    -0.76700
O58         O  0.50775391  0.84704729  0.60964607    -1.12900
O59         O  0.48807508  0.77339730  0.58854835    -0.72000
C60         C  0.49879422  0.76597843  0.61485484     0.98700
C61         C  0.57897656  0.92972396  0.62319981     0.95100
Al62       Al  0.49297302  0.87681425  0.62974733     1.55600
O63         O  0.56340775  0.83574143  0.57674315    -0.76700
C64         C  0.41726936  0.80220252  0.62223492     0.99200
C65         C  0.52268481  0.85691733  0.68240129     0.94100
O66         O  0.55071190  0.86007831  0.66514100    -0.82000
O67         O  0.21346538  0.48511967  0.37339340    -0.81400
C68         C  0.13104895  0.54509762  0.44207959     0.97900
O69         O  0.16746503  0.55683978  0.44384925    -0.70600
O70         O  0.17784641  0.49884717  0.45749023    -0.74200
Al71       Al  0.19903128  0.53727868  0.42561706     1.49000
C72         C  0.17537092  0.46579192  0.45716613     0.93200
O73         O  0.10267920  0.42887174  0.39772514    -0.80400
O74         O  0.15249493  0.51989964  0.33732294    -0.73900
Al75       Al  0.15900054  0.45968364  0.38686727     1.90100
O76         O  0.08925067  0.47062010  0.37485200    -0.73000
O77         O  0.17175340  0.57734566  0.37826745    -0.72900
O78         O  0.11096483  0.52468870  0.41860350    -0.78500
O79         O  0.22417773  0.57936975  0.39650596    -0.76700
O80         O  0.16359327  0.50589381  0.39724640    -1.12900
O81         O  0.23893544  0.52520796  0.41412474    -0.72000
C82         C  0.24329457  0.51013581  0.38895757     0.98700
C83         C  0.07774464  0.43648769  0.38563582     0.95100
Al84       Al  0.13351761  0.52161751  0.37874756     1.55600
O85         O  0.17130119  0.44837363  0.43048717    -0.76700
C86         C  0.20871952  0.59592556  0.38194568     0.99200
C87         C  0.15050255  0.49013239  0.32416741     0.94100
O88         O  0.14715800  0.46199343  0.34157652    -0.82000
O89         O  0.28409694  0.78459951  0.38340289    -0.81400
C90         C  0.41039550  0.89196224  0.45302042     0.97900
O91         O  0.38183300  0.85693327  0.45467021    -0.70600
O92         O  0.31188061  0.79868711  0.44495724    -0.74200
Al93       Al  0.35975707  0.82041894  0.42219374     1.49000
C94         C  0.28551116  0.80692340  0.45006423     0.93200
O95         O  0.31328953  0.89434715  0.39006282    -0.80400
O96         O  0.37540115  0.89306981  0.34100245    -0.73900
Al97       Al  0.30332403  0.84059636  0.38818497     1.90100
O98         O  0.37728499  0.93061476  0.39774523    -0.73000
O99         O  0.42032097  0.87030669  0.36630752    -0.72900
O100        O  0.42288113  0.90905972  0.42584879    -0.78500
O101        O  0.41048720  0.83234412  0.40708684    -0.76700
O102        O  0.35280781  0.85339573  0.39821469    -1.12900
O103        O  0.33726162  0.78138752  0.39065722    -0.72000
C104        C  0.30191406  0.76542754  0.38151282     0.98700
C105        C  0.34399764  0.92747356  0.39568202     0.95100
Al106      Al  0.39545516  0.89728300  0.38399555     1.55600
O107        O  0.28442031  0.83270114  0.43258823    -0.76700
C108        C  0.42680796  0.84620911  0.38060363     0.99200
C109        C  0.34370585  0.86779973  0.32728061     0.94100
O110        O  0.31375672  0.84431292  0.34358060    -0.82000
O111        O  0.52048916  0.75166341  0.37313600    -0.81400
C112        C  0.45344780  0.61573130  0.44648882     0.97900
O113        O  0.45497671  0.64842025  0.44515538    -0.70600
O114        O  0.49331485  0.72377323  0.43429964    -0.74200
Al115      Al  0.45823872  0.67895684  0.40949759     1.49000
C116        C  0.52971448  0.74224153  0.44091608     0.93200
O117        O  0.57626372  0.69761125  0.38456118    -0.80400
O118        O  0.51007904  0.64054115  0.34060047    -0.73900
Al119      Al  0.54204564  0.71829234  0.38091914     1.90100
O120        O  0.53731038  0.63726598  0.40102561    -0.73000
O121        O  0.43780675  0.60357496  0.36357282    -0.72900
O122        O  0.46534169  0.60362113  0.42354666    -0.78500
O123        O  0.41400083  0.63424787  0.39014726    -0.76700
O124        O  0.49613269  0.67398456  0.39115781    -1.12900
O125        O  0.45688550  0.71097694  0.37565524    -0.72000
C126        C  0.48588407  0.74487302  0.36907122     0.98700
C127        C  0.57130386  0.66530068  0.39437135     0.95100
Al128      Al  0.48880692  0.62599023  0.38294389     1.55600
O129        O  0.55339657  0.73625085  0.42467738    -0.76700
C130        C  0.40872771  0.60598168  0.37269381     0.99200
C131        C  0.52333817  0.67200626  0.32425732     0.94100
O132        O  0.53468079  0.70486337  0.33758625    -0.82000
O133        O  0.70298906  0.55035555  0.33947624    -0.81400
C134        C  0.61211372  0.49145695  0.45417704     0.97900
O135        O  0.59976141  0.48852553  0.42559835    -0.70600
O136        O  0.62888821  0.55207596  0.38996246    -0.74200
Al137      Al  0.62428503  0.50283716  0.38354893     1.49000
C138        C  0.65733377  0.58721218  0.38938262     0.93200
O139        O  0.73911485  0.58498735  0.42488435    -0.80400
O140        O  0.70627706  0.47759496  0.40095140    -0.73900
Al141      Al  0.71609942  0.56274526  0.38340620     1.90100
O142        O  0.72479601  0.53049853  0.44894823    -0.73000
O143        O  0.63205120  0.44065644  0.42002173    -0.72900
O144        O  0.64769919  0.50118028  0.45935699    -0.78500
O145        O  0.61208748  0.44992995  0.37446001    -0.76700
O146        O  0.67276270  0.51931012  0.39869088    -1.12900
O147        O  0.63895154  0.51358203  0.33898569    -0.72000
C148        C  0.67140118  0.53128873  0.32401183     0.98700
C149        C  0.74438998  0.56747248  0.44782551     0.95100
Al150      Al  0.67766877  0.49059176  0.42938558     1.55600
O151        O  0.69264428  0.59537594  0.38550559    -0.76700
C152        C  0.61258346  0.42662912  0.39483234     0.99200
C153        C  0.73385056  0.49899520  0.38145535     0.94100
O154        O  0.74550555  0.53548558  0.37781028    -0.82000
O155        O  0.45042577  0.32177687  0.67135288    -0.81400
C156        C  0.52279339  0.41266007  0.56383979     0.97900
O157        O  0.50114122  0.41303835  0.58617600    -0.70600
O158        O  0.44656183  0.37758111  0.63184546    -0.74200
Al159      Al  0.50107965  0.39500847  0.62904860     1.49000
C160        C  0.41613598  0.34909475  0.61967692     0.93200
O161        O  0.44589784  0.27314156  0.58929144    -0.80400
O162        O  0.53088946  0.30685576  0.61229200    -0.73900
Al163      Al  0.45199154  0.30291940  0.62861135     1.90100
O164        O  0.49508347  0.31612530  0.55968224    -0.73000
O165        O  0.57369874  0.38162977  0.61773394    -0.72900
O166        O  0.53767971  0.39108642  0.56535066    -0.78500
O167        O  0.55750529  0.42519715  0.62933824    -0.76700
O168        O  0.49461630  0.34872400  0.61594286    -1.12900
O169        O  0.50266669  0.38172788  0.67246129    -0.72000
C170        C  0.47662617  0.35117360  0.68704069     0.98700
C171        C  0.46534465  0.28235236  0.56329042     0.95100
Al172      Al  0.53093365  0.34876746  0.59095933     1.55600
O173        O  0.41564433  0.31784633  0.61158557    -0.76700
C174        C  0.58332582  0.41590279  0.62605126     0.99200
C175        C  0.51315227  0.28449801  0.63572917     0.94100
O176        O  0.48250478  0.28241550  0.64727552    -0.82000
O177        O  0.46416781  0.17439131  0.34159840    -0.81400
C178        C  0.51670615  0.12475948  0.44690356     0.97900
O179        O  0.51228606  0.10920341  0.41930374    -0.70600
O180        O  0.44324829  0.08578086  0.39435925    -0.74200
Al181      Al  0.49426757  0.12115720  0.37899402     1.49000
C182        C  0.41178500  0.08635448  0.39264869     0.93200
O183        O  0.44496147  0.17586399  0.43172360    -0.80400
O184        O  0.54955166  0.23693394  0.38747492    -0.73900
Al185      Al  0.45633984  0.17396508  0.38655217     1.90100
O186        O  0.50720020  0.21530748  0.44307101    -0.73000
O187        O  0.57504044  0.18899661  0.40046667    -0.72900
O188        O  0.52242273  0.15909853  0.44969365    -0.78500
O189        O  0.54608814  0.15049904  0.36005925    -0.76700
O190        O  0.49469667  0.16342297  0.39452849    -1.12900
O191        O  0.47601350  0.12572071  0.33719477    -0.72000
C192        C  0.46991134  0.15140681  0.32445440     0.98700
C193        C  0.47135681  0.20048230  0.45050024     0.95100
Al194      Al  0.53495926  0.19693989  0.41807150     1.55600
O195        O  0.41272375  0.11835744  0.38627464    -0.76700
C196        C  0.57717766  0.17566898  0.37379452     0.99200
C197        C  0.52972807  0.25353648  0.38436228     0.94100
O198        O  0.49206143  0.23233885  0.38532562    -0.82000
O199        O  0.83300194  0.54798706  0.66905442    -0.81400
C200        C  0.85192706  0.49592447  0.54678263     0.97900
O201        O  0.86641297  0.49126051  0.57253881    -0.70600
O202        O  0.90993576  0.55749483  0.60607827    -0.74200
Al203      Al  0.86555691  0.50858122  0.61694966     1.49000
C204        C  0.91990810  0.59145922  0.61609767     0.93200
O205        O  0.84122748  0.59419510  0.58499119    -0.80400
O206        O  0.75545601  0.48646387  0.61279176    -0.73900
Al207      Al  0.83659381  0.56856307  0.62663475     1.90100
O208        O  0.78998002  0.54186558  0.56557086    -0.73000
O209        O  0.78701357  0.44817630  0.58899664    -0.72900
O210        O  0.83006391  0.51027768  0.54844407    -0.78500
O211        O  0.82523326  0.45615861  0.62910867    -0.76700
O212        O  0.83218526  0.52536862  0.60877446    -1.12900
O213        O  0.87031266  0.52182084  0.66213171    -0.72000
C214        C  0.85248936  0.53331821  0.68055005     0.98700
C215        C  0.81506983  0.57802737  0.56346760     0.95100
Al216      Al  0.79389402  0.49886853  0.58143352     1.55600
O217        O  0.89431287  0.59810210  0.62820115    -0.76700
C218        C  0.79822171  0.43345375  0.61020433     0.99200
C219        C  0.74963836  0.51265408  0.62402295     0.94100
O220        O  0.77867632  0.54757273  0.62877071    -0.82000
O221        O  0.82618167  0.30532148  0.33028511    -0.81400
C222        C  0.83848013  0.40313058  0.43526594     0.97900
O223        O  0.85548996  0.41461554  0.40835133    -0.70600
O224        O  0.89756708  0.38457477  0.38993815    -0.74200
Al225      Al  0.85609940  0.38716371  0.37041375     1.49000
C226        C  0.90697485  0.35888764  0.38612604     0.93200
O227        O  0.81961552  0.28116988  0.42051296    -0.80400
O228        O  0.74256130  0.29943017  0.37551201    -0.73900
Al229      Al  0.82312189  0.29635068  0.37565459     1.90100
O230        O  0.77078244  0.29017667  0.43272451    -0.73000
O231        O  0.77513381  0.37507956  0.38678805    -0.72900
O232        O  0.81085916  0.36780364  0.43961637    -0.78500
O233        O  0.81979825  0.39801203  0.34907467    -0.76700
O234        O  0.81940446  0.33902198  0.38421471    -1.12900
O235        O  0.86430040  0.36983604  0.32927676    -0.72000
C236        C  0.84686764  0.33708434  0.31475615     0.98700
C237        C  0.79175677  0.27549295  0.43922199     0.95100
Al238      Al  0.77837434  0.33337387  0.40657595     1.55600
O239        O  0.88086297  0.32366409  0.37902754    -0.76700
C240        C  0.79110965  0.39738925  0.36299664     0.99200
C241        C  0.73859393  0.26742944  0.36539091     0.94100
O242        O  0.76626885  0.26021914  0.36914868    -0.82000
O243        O  0.69073968  0.18695929  0.66535950    -0.81400
C244        C  0.57937827  0.12887890  0.56329708     0.97900
O245        O  0.57152693  0.12052821  0.59265137    -0.70600
O246        O  0.61618207  0.09493869  0.61734980    -0.74200
Al247      Al  0.60596346  0.13491931  0.62960284     1.49000
C248        C  0.64751675  0.09428741  0.62155543     0.93200
O249        O  0.71394525  0.17852800  0.57755666    -0.80400
O250        O  0.67818857  0.24947412  0.60168264    -0.73900
Al251      Al  0.69798717  0.18146862  0.62086527     1.90100
O252        O  0.68782684  0.20916363  0.55388948    -0.73000
O253        O  0.60190955  0.20421359  0.60033262    -0.72900
O254        O  0.61206675  0.15792749  0.55479190    -0.78500
O255        O  0.59104809  0.17106328  0.64495498    -0.76700
O256        O  0.65000019  0.17289930  0.61023757    -1.12900
O257        O  0.62900126  0.13982776  0.67064518    -0.72000
C258        C  0.66163766  0.16446562  0.68292095     0.98700
C259        C  0.71226848  0.19767765  0.55390282     0.95100
Al260      Al  0.64521642  0.20224956  0.58028074     1.55600
O261        O  0.68042086  0.12585084  0.62584241    -0.76700
C262        C  0.58800633  0.19614621  0.62851451     0.99200
C263        C  0.71275066  0.26202647  0.61148189     0.94100
O264        O  0.72466282  0.23850191  0.61800678    -0.82000
O265        O  0.73626650  0.51925848  0.11942590    -0.81400
C266        C  0.59829496  0.49665713  0.05898404     0.97900
O267        O  0.63229129  0.50506425  0.04993879    -0.70600
O268        O  0.70690672  0.52683989  0.04954366    -0.74200
Al269      Al  0.66302382  0.48804986  0.07215678     1.49000
C270        C  0.73513414  0.56090264  0.05450717     0.93200
O271        O  0.70023752  0.59237160  0.12605038    -0.80400
O272        O  0.64043526  0.51264997  0.16998239    -0.73900
Al273      Al  0.71475296  0.55301454  0.12193164     1.90100
O274        O  0.63498019  0.55834975  0.12355241    -0.73000
O275        O  0.60094739  0.44946145  0.13270686    -0.72900
O276        O  0.59037821  0.49448705  0.08852542    -0.78500
O277        O  0.61774561  0.44083057  0.08529645    -0.76700
O278        O  0.66674981  0.51556340  0.10727229    -1.12900
O279        O  0.69388926  0.46857658  0.08993759    -0.72000
C280        C  0.72527869  0.48634423  0.10619396     0.98700
C281        C  0.66739199  0.59074886  0.12482088     0.95100
Al282      Al  0.62140285  0.50526182  0.12700733     1.55600
O283        O  0.73836160  0.57696061  0.08122451    -0.76700
C284        C  0.59595513  0.42677118  0.10954859     0.99200
C285        C  0.67340678  0.52514068  0.18310285     0.94100
O286        O  0.70402944  0.53850763  0.16611027    -0.82000
O287        O  0.49281921  0.28022853  0.86829585    -0.81400
C288        C  0.52461230  0.40687634  0.95307957     0.97900
O289        O  0.53102761  0.37904396  0.95759434    -0.70600
O290        O  0.48461770  0.30328520  0.95796106    -0.74200
Al291      Al  0.52857231  0.33822807  0.93204364     1.49000
C292        C  0.45690592  0.26999484  0.94988925     0.93200
O293        O  0.42309941  0.31538386  0.89828979    -0.80400
O294        O  0.51599678  0.37659524  0.84165650    -0.73900
Al295      Al  0.45939409  0.29897002  0.88415370     1.90100
O296        O  0.46049858  0.37741535  0.88177547    -0.73000
O297        O  0.57035551  0.41386455  0.88508187    -0.72900
O298        O  0.51489172  0.41287033  0.92583613    -0.78500
O299        O  0.57742909  0.37220704  0.91354917    -0.76700
O300        O  0.50088372  0.34290375  0.90064730    -1.12900
O301        O  0.53194042  0.29708383  0.91041631    -0.72000
C302        C  0.52034528  0.27979271  0.88358849     0.98700
C303        C  0.42746193  0.34883365  0.89099724     0.95100
Al304      Al  0.51404833  0.39070399  0.88499262     1.55600
O305        O  0.44580244  0.26420754  0.92115970    -0.76700
C306        C  0.59248434  0.40280391  0.89670188     0.99200
C307        C  0.48815892  0.34845880  0.82670631     0.94100
O308        O  0.46128821  0.31948252  0.84202093    -0.82000
O309        O  0.75466153  0.24096371  0.87948446    -0.81400
C310        C  0.61896081  0.15535873  0.95197491     0.97900
O311        O  0.65277222  0.18516763  0.95170642    -0.70600
O312        O  0.72607233  0.22259220  0.94133811    -0.74200
Al313      Al  0.68199108  0.21969318  0.91976710     1.49000
C314        C  0.74157632  0.20139560  0.94214343     0.93200
O315        O  0.69503779  0.12626621  0.87300324    -0.80400
O316        O  0.64181938  0.14198133  0.83899687    -0.73900
Al317      Al  0.71900098  0.18311523  0.87792628     1.90100
O318        O  0.63771056  0.10327235  0.89659654    -0.73000
O319        O  0.60960398  0.17748711  0.86908332    -0.72900
O320        O  0.60381048  0.13779182  0.92585136    -0.78500
O321        O  0.63852128  0.22403617  0.90474478    -0.76700
O322        O  0.67582626  0.18192336  0.89366194    -1.12900
O323        O  0.71278470  0.25978744  0.89052545    -0.72000
C324        C  0.74712787  0.26830448  0.88351921     0.98700
C325        C  0.66413082  0.09779887  0.88533413     0.95100
Al326      Al  0.62740496  0.14320637  0.88340832     1.55600
O327        O  0.73647034  0.17797312  0.91952117    -0.76700
C328        C  0.61355984  0.20779528  0.88268339     0.99200
C329        C  0.67228560  0.16496754  0.82230083     0.94100
O330        O  0.70511851  0.18811680  0.83549724    -0.82000
O331        O  0.78852718  0.51938502  0.87131269    -0.81400
C332        C  0.90497205  0.50586881  0.94279923     0.97900
O333        O  0.86942015  0.49373453  0.94892714    -0.70600
O334        O  0.83974018  0.53899890  0.95602378    -0.74200
Al335      Al  0.82741832  0.49509310  0.92950188     1.49000
C336        C  0.82864799  0.56311599  0.95008454     0.93200
O337        O  0.89540337  0.60289989  0.88850131    -0.80400
O338        O  0.87162154  0.51210737  0.83531704    -0.73900
Al339      Al  0.84262088  0.55978223  0.88051791     1.90100
O340        O  0.92703571  0.57334771  0.87179125    -0.73000
O341        O  0.86451526  0.46212757  0.87963727    -0.72900
O342        O  0.92011385  0.52266033  0.91647572    -0.78500
O343        O  0.81183758  0.44755052  0.90794933    -0.76700
O344        O  0.85433182  0.52436249  0.89580655    -1.12900
O345        O  0.77815946  0.48871661  0.91734286    -0.72000
C346        C  0.76502567  0.49398786  0.89149584     0.98700
C347        C  0.92705812  0.60394380  0.88076593     0.95100
Al348      Al  0.89232201  0.51840706  0.87736476     1.55600
O349        O  0.82657913  0.57153245  0.92115284    -0.76700
C350        C  0.83152585  0.43701185  0.89133653     0.99200
C351        C  0.86177749  0.53352149  0.82058649     0.94100
O352        O  0.85454542  0.55669100  0.83593922    -0.82000
O353        O  0.47435148  0.22952332  0.11887959    -0.81400
C354        C  0.53898601  0.14405518  0.06668842     0.97900
O355        O  0.52464050  0.16433439  0.05711418    -0.70600
O356        O  0.48795334  0.20320951  0.05615446    -0.74200
Al357      Al  0.52896728  0.20722877  0.08119602     1.49000
C358        C  0.45094327  0.18336411  0.05606174     0.93200
O359        O  0.42550128  0.11501626  0.12959530    -0.80400
O360        O  0.49287434  0.14493047  0.17287122    -0.73900
Al361      Al  0.45364135  0.17269030  0.12339809     1.90100
O362        O  0.47190298  0.10107318  0.11886087    -0.73000
O363        O  0.56343241  0.19270425  0.14713856    -0.72900
O364        O  0.54309402  0.14076133  0.09628457    -0.78500
O365        O  0.57851344  0.22021209  0.09952016    -0.76700
O366        O  0.49929078  0.17595276  0.11242328    -1.12900
O367        O  0.53521075  0.25190381  0.10165101    -0.72000
C368        C  0.50856356  0.25800193  0.11138449     0.98700
C369        C  0.43643136  0.09009586  0.12471886     0.95100
Al370      Al  0.51608576  0.14726385  0.13223420     1.55600
O371        O  0.43225647  0.16324087  0.08038452    -0.76700
C372        C  0.58854650  0.21766480  0.12774644     0.99200
C373        C  0.47796508  0.16335890  0.18524677     0.94100
O374        O  0.46728217  0.18237658  0.16788796    -0.82000
O375        O  0.77617200  0.28176188  0.11963778    -0.81400
C376        C  0.88851877  0.41265853  0.04548835     0.97900
O377        O  0.86055858  0.37829485  0.03910654    -0.70600
O378        O  0.80829449  0.30295235  0.04522061    -0.74200
Al379      Al  0.81509552  0.34874517  0.06531968     1.49000
C380        C  0.81544336  0.27625210  0.05166149     0.93200
O381        O  0.88775479  0.31814589  0.11855281    -0.80400
O382        O  0.87351735  0.38098463  0.15982482    -0.73900
Al383      Al  0.83245657  0.30267941  0.11735575     1.90100
O384        O  0.91960079  0.38276487  0.10997930    -0.73000
O385        O  0.84387524  0.41371620  0.12285176    -0.72900
O386        O  0.89639152  0.42297023  0.07448932    -0.78500
O387        O  0.81403089  0.39459336  0.07677415    -0.76700
O388        O  0.84266509  0.34871178  0.09936617    -1.12900
O389        O  0.76698031  0.32017071  0.08745822    -0.72000
C390        C  0.75416969  0.29389837  0.10890717     0.98700
C391        C  0.91954561  0.35088494  0.11362075     0.95100
Al392      Al  0.88001152  0.39558391  0.11534500     1.55600
O393        O  0.82896807  0.27522251  0.07853446    -0.76700
C394        C  0.82175663  0.41505620  0.10174827     0.99200
C395        C  0.85207182  0.34938230  0.17497833     0.94100
O396        O  0.83245221  0.31773138  0.16002667    -0.82000
O397        O  0.30849446  0.48455848  0.84577404    -0.81400
C398        C  0.41433523  0.54432273  0.95042272     0.97900
O399        O  0.42254039  0.54288545  0.92152050    -0.70600
O400        O  0.38059377  0.46907951  0.90071399    -0.74200
Al401      Al  0.38940877  0.51805319  0.88510330     1.49000
C402        C  0.35118632  0.43592372  0.89333199     0.93200
O403        O  0.28130193  0.44659816  0.93159318    -0.80400
O404        O  0.31006072  0.55291096  0.90930175    -0.73900
Al405      Al  0.29808888  0.46796473  0.88937294     1.90100
O406        O  0.30364300  0.50252530  0.95745219    -0.73000
O407        O  0.38677612  0.58956364  0.91074380    -0.72900
O408        O  0.38032224  0.53643771  0.95841980    -0.78500
O409        O  0.40244646  0.56817436  0.86775114    -0.76700
O410        O  0.34395518  0.50946285  0.90220239    -1.12900
O411        O  0.36852967  0.49581129  0.84415121    -0.72000
C412        C  0.33798919  0.48986581  0.82972640     0.98700
C413        C  0.28190958  0.46531420  0.95632800     0.95100
Al414      Al  0.34513402  0.54248675  0.93152920     1.55600
O415        O  0.31888172  0.43279236  0.88460291    -0.76700
C416        C  0.40373532  0.59605447  0.88363886     0.99200
C417        C  0.27683771  0.52879046  0.89780416     0.94100
O418        O  0.26762781  0.49377709  0.89146450    -0.82000
O419        O  0.17110150  0.47138274  0.16770266    -0.81400
C420        C  0.12515103  0.51662918  0.05303004     0.97900
O421        O  0.11627655  0.51984767  0.08159940    -0.70600
O422        O  0.08619799  0.45343298  0.11254596    -0.74200
Al423      Al  0.12675997  0.50381345  0.12254570     1.49000
C424        C  0.08205907  0.42016288  0.11791119     0.93200
O425        O  0.16792579  0.43071938  0.08377598    -0.80400
O426        O  0.24101684  0.54159678  0.10169001    -0.73900
Al427      Al  0.16841294  0.45444108  0.12442333     1.90100
O428        O  0.20306987  0.48556747  0.05695720    -0.73000
O429        O  0.19668397  0.57130510  0.08907153    -0.72900
O430        O  0.15276601  0.50989460  0.04805485    -0.78500
O431        O  0.16410080  0.55717872  0.13422720    -0.76700
O432        O  0.16357096  0.49389494  0.10798773    -1.12900
O433        O  0.12768785  0.48948660  0.16635178    -0.72000
C434        C  0.14945331  0.48109309  0.18240456     0.98700
C435        C  0.18998075  0.44926513  0.06029568     0.95100
Al436      Al  0.19539045  0.52424848  0.07669767     1.55600
O437        O  0.11110539  0.41680555  0.12667172    -0.76700
C438        C  0.18705140  0.58243800  0.11401884     0.99200
C439        C  0.25148145  0.52018814  0.11589597     0.94100
O440        O  0.22615427  0.48503983  0.12445079    -0.82000
O441        O  0.15398522  0.69888846  0.84439981    -0.81400
C442        C  0.11493038  0.59759463  0.94980059     0.97900
O443        O  0.09818085  0.59956060  0.92477987    -0.70600
O444        O  0.08791241  0.64155588  0.87980671    -0.74200
Al445      Al  0.12519390  0.62410764  0.88548704     1.49000
C446        C  0.08653077  0.67152263  0.88911777     0.93200
O447        O  0.18774021  0.74450472  0.92858499    -0.80400
O448        O  0.23774580  0.71699456  0.92232137    -0.73900
Al449      Al  0.16964408  0.71568880  0.88825713     1.90100
O450        O  0.17467615  0.69769217  0.96296897    -0.73000
O451        O  0.20933968  0.64197852  0.91242769    -0.72900
O452        O  0.15063234  0.62261554  0.95504148    -0.78500
O453        O  0.15559453  0.59824056  0.88787088    -0.76700
O454        O  0.16130378  0.66945464  0.90333075    -1.12900
O455        O  0.14714161  0.64073607  0.84401789    -0.72000
C456        C  0.15004506  0.66962706  0.82881394     0.98700
C457        C  0.18640237  0.73344972  0.95736053     0.95100
Al458      Al  0.19038770  0.66976062  0.93556114     1.55600
O459        O  0.11713364  0.70248868  0.89893368    -0.76700
C460        C  0.19011500  0.60984472  0.89771163     0.99200
C461        C  0.24856499  0.73325617  0.89506378     0.94100
O462        O  0.22315028  0.73207474  0.87582665    -0.82000
O463        O  0.54711422  0.84955351  0.83872614    -0.81400
C464        C  0.48789120  0.88025248  0.94939453     0.97900
O465        O  0.48464664  0.89248312  0.92178781    -0.70600
O466        O  0.54911925  0.92586787  0.88572122    -0.74200
Al467      Al  0.49838810  0.88194765  0.87899508     1.49000
C468        C  0.58343998  0.93130971  0.88643297     0.93200
O469        O  0.56699380  0.84328391  0.92937270    -0.80400
O470        O  0.46207023  0.77213433  0.88890843    -0.73900
Al471      Al  0.55359557  0.84609270  0.88387429     1.90100
O472        O  0.50868236  0.79407479  0.93890066    -0.73000
O473        O  0.43134268  0.81388720  0.91308576    -0.72900
O474        O  0.49170844  0.85030818  0.95202500    -0.78500
O475        O  0.44415859  0.84281927  0.86736092    -0.76700
O476        O  0.51027118  0.84720458  0.89391581    -1.12900
O477        O  0.51084745  0.87678011  0.83651460    -0.72000
C478        C  0.52958564  0.86309256  0.82247707     0.98700
C479        C  0.54319447  0.81583505  0.94806820     0.95100
Al480      Al  0.47671876  0.81119456  0.92054995     1.55600
O481        O  0.58925290  0.90258372  0.88636026    -0.76700
C482        C  0.41920994  0.81865805  0.88702844     0.99200
C483        C  0.48626463  0.76306375  0.87736017     0.94100
O484        O  0.52358030  0.78800212  0.87798908    -0.82000
O485        O  0.31365097  0.83202034  0.17225589    -0.81400
C486        C  0.41900762  0.87278345  0.06642854     0.97900
O487        O  0.42890341  0.88181817  0.09527700    -0.70600
O488        O  0.39031018  0.91550886  0.11478010    -0.74200
Al489      Al  0.39613819  0.87525232  0.13224365     1.49000
C490        C  0.36337343  0.92195797  0.12279027     0.93200
O491        O  0.28921479  0.83887105  0.08460570    -0.80400
O492        O  0.31429770  0.76016045  0.11212182    -0.73900
Al493      Al  0.30503503  0.83609837  0.12767294     1.90100
O494        O  0.30813079  0.80097303  0.06232775    -0.73000
O495        O  0.39131479  0.80052149  0.10839066    -0.72900
O496        O  0.38455098  0.84570534  0.05972758    -0.78500
O497        O  0.40632162  0.83777260  0.15124089    -0.76700
O498        O  0.34992343  0.83837579  0.11602302    -1.12900
O499        O  0.37579950  0.87902048  0.17329851    -0.72000
C500        C  0.34365314  0.85690568  0.18771288     0.98700
C501        C  0.28726287  0.81671215  0.06192771     0.95100
Al502      Al  0.34976577  0.80480362  0.08794809     1.55600
O503        O  0.32916389  0.89367360  0.13060394    -0.76700
C504        C  0.40728702  0.81092268  0.13573415     0.99200
C505        C  0.28042173  0.75168236  0.12138727     0.94100
O506        O  0.27259543  0.77859407  0.12684182    -0.82000
O507        O  0.55123788  0.69591493  0.17078939    -0.81400
C508        C  0.49172152  0.61182377  0.06128173     0.97900
O509        O  0.50932721  0.60896468  0.08545024    -0.70600
O510        O  0.55879417  0.64256578  0.13355675    -0.74200
Al511      Al  0.50426565  0.62397965  0.12781772     1.49000
C512        C  0.59000897  0.67208569  0.12297914     0.93200
O513        O  0.56266057  0.74746542  0.09032323    -0.80400
O514        O  0.47290698  0.71037115  0.11081356    -0.73900
Al515      Al  0.55284434  0.71619498  0.12870640     1.90100
O516        O  0.51441069  0.70712965  0.05924677    -0.73000
O517        O  0.43207332  0.63614643  0.11277525    -0.72900
O518        O  0.47443347  0.63138474  0.06210873    -0.78500
O519        O  0.44701864  0.59201223  0.12519179    -0.76700
O520        O  0.51125515  0.67068271  0.11472285    -1.12900
O521        O  0.49893794  0.63546463  0.17090203    -0.72000
C522        C  0.52450886  0.66594498  0.18563738     0.98700
C523        C  0.54514170  0.73995827  0.06384430     0.95100
Al524      Al  0.47659532  0.67119538  0.08846735     1.55600
O525        O  0.59021402  0.70257700  0.11340795    -0.76700
C526        C  0.42148712  0.60166094  0.12106741     0.99200
C527        C  0.48957244  0.73168372  0.13480581     0.94100
O528        O  0.52097660  0.73527388  0.14574714    -0.82000
C529        C  0.42832600  0.79179994  0.14859855    -0.05000
C530        C  0.40806943  0.75040132  0.15184662    -0.02100
C531        C  0.42952331  0.73099241  0.15366923     0.02900
C532        C  0.47082821  0.75249548  0.14909729    -0.05000
C533        C  0.49133035  0.79412197  0.15129474    -0.02100
C534        C  0.46972524  0.81370822  0.15273273     0.02900
C535        C  0.36525018  0.72767180  0.15275650     0.37500
C536        C  0.53405778  0.81673482  0.14909515     0.37500
C537        C  0.48997984  0.85616882  0.15688258     0.35900
C538        C  0.40912215  0.68881251  0.15960479     0.35900
N539        N  0.50607202  0.89002090  0.16058061    -0.38900
N540        N  0.39251271  0.65530819  0.16514123    -0.38900
N541        N  0.56818667  0.83471873  0.14724836    -0.38300
N542        N  0.33110435  0.70895327  0.15370696    -0.38300
C543        C  0.55212747  0.80746194  0.98110666    -0.05000
C544        C  0.58469947  0.80270409  0.98770044    -0.02100
C545        C  0.58555594  0.78376831  0.01662769     0.02900
C546        C  0.55478486  0.77123314  0.03943821    -0.05000
C547        C  0.52626440  0.78196574  0.03500483    -0.02100
C548        C  0.52305162  0.79703559  0.00557824     0.02900
C549        C  0.61513568  0.81369567  0.96364704     0.37500
C550        C  0.49746983  0.77499271  0.05985634     0.37500
C551        C  0.48674490  0.79742188  0.00080155     0.35900
C552        C  0.61709589  0.77599941  0.02245990     0.35900
N553        N  0.45642333  0.79540753  0.99960415    -0.38900
N554        N  0.64238583  0.76989970  0.02719184    -0.38900
N555        N  0.47308599  0.77089017  0.07762610    -0.38300
N556        N  0.63944841  0.82251220  0.94437508    -0.38300
C557        C  0.44793637  0.89167776  0.03986985    -0.05000
C558        C  0.48108803  0.88728803  0.03768659    -0.02100
C559        C  0.50035837  0.89295436  0.00801054     0.02900
C560        C  0.48317176  0.89734978  0.97981293    -0.05000
C561        C  0.45464703  0.90875613  0.98297665    -0.02100
C562        C  0.43868990  0.90790299  0.01358433     0.02900
C563        C  0.49346394  0.87361029  0.06487846     0.37500
C564        C  0.43981091  0.91871371  0.95503286     0.37500
C565        C  0.41318409  0.92386162  0.01853719     0.35900
C566        C  0.53671493  0.89226089  0.00629374     0.35900
N567        N  0.39320233  0.93699375  0.02289970    -0.38900
N568        N  0.56585171  0.89190440  0.00546259    -0.38900
N569        N  0.42789329  0.92659714  0.93269130    -0.38300
N570        N  0.50400959  0.86243313  0.08601082    -0.38300
C571        C  0.20594756  0.76301918  0.98381595    -0.05000
C572        C  0.19266005  0.75345763  0.01593852    -0.02100
C573        C  0.21778502  0.77550038  0.04164568     0.02900
C574        C  0.25767367  0.80492994  0.03567425    -0.05000
C575        C  0.27016094  0.81539431  0.00362110    -0.02100
C576        C  0.24351449  0.79693535  0.97811987     0.02900
C577        C  0.15372937  0.71994245  0.02276761     0.37500
C578        C  0.31143293  0.84156525  0.99604186     0.37500
C579        C  0.25634493  0.81160534  0.94583945     0.35900
C580        C  0.20375557  0.76480608  0.07436788     0.35900
N581        N  0.26669875  0.82420583  0.92031217    -0.38900
N582        N  0.19225372  0.75601759  0.10037805    -0.38900
N583        N  0.34397991  0.86083248  0.98798000    -0.38300
N584        N  0.12280913  0.69314631  0.02864305    -0.38300
C585        C  0.37570039  0.79460310  0.88143250    -0.05000
C586        C  0.35409035  0.81053969  0.86772832    -0.02100
C587        C  0.31206456  0.78924376  0.86956259     0.02900
C588        C  0.29164438  0.75298242  0.88678319    -0.05000
C589        C  0.31358569  0.73626098  0.89851550    -0.02100
C590        C  0.35470681  0.75610511  0.89485873     0.02900
C591        C  0.37499774  0.84988268  0.85386713     0.37500
C592        C  0.29523016  0.69911762  0.91613349     0.37500
C593        C  0.37494901  0.73647365  0.90686021     0.35900
C594        C  0.29039208  0.80596315  0.85532565     0.35900
N595        N  0.38876987  0.71911011  0.91732346    -0.38900
N596        N  0.27331247  0.81955327  0.84391182    -0.38900
N597        N  0.28405130  0.67060571  0.93117783    -0.38300
N598        N  0.39175758  0.88140191  0.84298805    -0.38300
C599        C  0.10616883  0.52487807  0.02511298    -0.05000
C600        C  0.08770726  0.54761593  0.02904813    -0.02100
C601        C  0.08369976  0.56759204  0.00244812     0.02900
C602        C  0.09583603  0.56327947  0.97187957    -0.05000
C603        C  0.10422658  0.53306321  0.96694339    -0.02100
C604        C  0.11092266  0.51493755  0.99337450     0.02900
C605        C  0.07502994  0.55285107  0.06031811     0.37500
C606        C  0.10900370  0.52284410  0.93454548     0.37500
C607        C  0.12523027  0.48829322  0.98727054     0.35900
C608        C  0.06794933  0.59334259  0.00640501     0.35900
N609        N  0.13722710  0.46768554  0.98151548    -0.38900
N610        N  0.05458603  0.61325644  0.00963392    -0.38900
N611        N  0.11236679  0.51396191  0.90885388    -0.38300
N612        N  0.06458403  0.55694757  0.08517687    -0.38300
C613        C  0.24893516  0.70931715  0.12109213    -0.05000
C614        C  0.23426378  0.68673959  0.14946322    -0.02100
C615        C  0.21309257  0.64482663  0.14798988     0.02900
C616        C  0.20283956  0.62567224  0.11790018    -0.05000
C617        C  0.21095053  0.64898482  0.09001755    -0.02100
C618        C  0.23648519  0.69002565  0.09126654     0.02900
C619        C  0.24051574  0.70629665  0.17998156     0.37500
C620        C  0.19243676  0.63107180  0.05978414     0.37500
C621        C  0.25098518  0.71133530  0.06122298     0.35900
C622        C  0.20367475  0.62198933  0.17730531     0.35900
N623        N  0.26175335  0.72589070  0.03628221    -0.38900
N624        N  0.19662617  0.60414144  0.20090882    -0.38900
N625        N  0.17746437  0.61757745  0.03559575    -0.38300
N626        N  0.24369413  0.72110269  0.20455659    -0.38300
C627        C  0.37834527  0.57237110  0.12119591    -0.05000
C628        C  0.35565933  0.56029414  0.14974145    -0.02100
C629        C  0.31375924  0.54141145  0.14839915     0.02900
C630        C  0.29473664  0.53573645  0.11857921    -0.05000
C631        C  0.31768858  0.54670350  0.09019414    -0.02100
C632        C  0.35880118  0.56329985  0.09148313     0.02900
C633        C  0.37550975  0.56898151  0.18035247     0.37500
C634        C  0.29960341  0.54276297  0.05921242     0.37500
C635        C  0.38101550  0.57215836  0.06171658     0.35900
C636        C  0.29053958  0.53069652  0.17760905     0.35900
N637        N  0.39735695  0.57841387  0.03740220    -0.38900
N638        N  0.27180548  0.52227379  0.20084212    -0.38900
N639        N  0.28642024  0.54079500  0.03414086    -0.38300
N640        N  0.39140929  0.57609620  0.20480646    -0.38300
C641        C  0.25504260  0.44460536  0.98404684    -0.05000
C642        C  0.21353359  0.42529765  0.98028549    -0.02100
C643        C  0.18898280  0.41887268  0.00728343     0.02900
C644        C  0.20579515  0.43138306  0.03781164    -0.05000
C645        C  0.24543747  0.44181986  0.04210327    -0.02100
C646        C  0.27049140  0.45015277  0.01530731     0.02900
C647        C  0.19651847  0.41542149  0.94854271     0.37500
C648        C  0.26070839  0.44563057  0.07423523     0.37500
C649        C  0.31244285  0.46657962  0.01999220     0.35900
C650        C  0.14658620  0.39954426  0.00389990     0.35900
N651        N  0.34589846  0.47989856  0.02416519    -0.38900
N652        N  0.11261463  0.38327801  0.00111739    -0.38900
N653        N  0.27290279  0.44786504  0.09980139    -0.38300
N654        N  0.18303563  0.40747467  0.92315033    -0.38300
C655        C  0.48985901  0.59263870  0.03060567    -0.05000
C656        C  0.49753073  0.61617778  0.00315890    -0.02100
C657        C  0.47196957  0.60077499  0.97703111     0.02900
C658        C  0.44567997  0.55965768  0.97482558    -0.05000
C659        C  0.44616945  0.53469446  0.99887947    -0.02100
C660        C  0.46632003  0.55126361  0.02783649     0.02900
C661        C  0.52810489  0.65758103  0.00368615     0.37500
C662        C  0.42487808  0.49239657  0.99449681     0.37500
C663        C  0.45954107  0.52630020  0.05549449     0.35900
C664        C  0.46773734  0.62817580  0.95679477     0.35900
N665        N  0.45383637  0.50633764  0.07763742    -0.38900
N666        N  0.46426544  0.65163562  0.94297745    -0.38900
N667        N  0.40889649  0.45853257  0.99124879    -0.38300
N668        N  0.55288923  0.69047743  0.00341113    -0.38300
C669        C  0.42681476  0.63749155  0.87149540    -0.05000
C670        C  0.46855592  0.65849138  0.87234597    -0.02100
C671        C  0.48987362  0.70043827  0.87199880     0.02900
C672        C  0.46967711  0.72109802  0.86672844    -0.05000
C673        C  0.42959761  0.69903647  0.85742656    -0.02100
C674        C  0.40752016  0.65785723  0.86267434     0.02900
C675        C  0.48908165  0.63708929  0.87690164     0.37500
C676        C  0.41110840  0.71887614  0.84273293     0.37500
C677        C  0.36487681  0.63714112  0.86057244     0.35900
C678        C  0.53161323  0.72169122  0.87954133     0.35900
N679        N  0.33082845  0.62148437  0.85926050    -0.38900
N680        N  0.56489308  0.73849815  0.88578729    -0.38900
N681        N  0.39671488  0.73480251  0.83059772    -0.38300
N682        N  0.50522728  0.61979901  0.88058421    -0.38300
C683        C  0.24750270  0.54157079  0.89568619    -0.05000
C684        C  0.23336486  0.54818785  0.92454791    -0.02100
C685        C  0.21521324  0.57083054  0.92487648     0.02900
C686        C  0.20722423  0.58393066  0.89592296    -0.05000
C687        C  0.21748367  0.57364568  0.86653113    -0.02100
C688        C  0.23847247  0.55318549  0.86645143     0.02900
C689        C  0.23718532  0.53140285  0.95424174     0.37500
C690        C  0.20860218  0.58610659  0.83666469     0.37500
C691        C  0.25226212  0.54557720  0.83664101     0.35900
C692        C  0.20649985  0.58195420  0.95550522     0.35900
N693        N  0.26363567  0.53963484  0.81296099    -0.38900
N694        N  0.20072960  0.59100720  0.98031020    -0.38900
N695        N  0.20146394  0.59600637  0.81278295    -0.38300
N696        N  0.23887615  0.51760794  0.97817310    -0.38300
C697        C  0.04128171  0.38601852  0.11362562    -0.05000
C698        C  0.02239125  0.38400199  0.08440839    -0.02100
C699        C  0.98136326  0.36879195  0.08366912     0.02900
C700        C  0.95846289  0.35342376  0.11177907    -0.05000
C701        C  0.97625928  0.34903391  0.13958483    -0.02100
C702        C  0.01783944  0.36576496  0.14061353     0.02900
C703        C  0.04593514  0.40164032  0.05575252     0.37500
C704        C  0.95239771  0.33071071  0.16792506     0.37500
C705        C  0.03685318  0.36559503  0.17018233     0.35900
C706        C  0.96340566  0.37254276  0.05467003     0.35900
N707        N  0.05217976  0.36546937  0.19373017    -0.38900
N708        N  0.94952078  0.37631655  0.03159647    -0.38900
N709        N  0.93323894  0.31591861  0.19048813    -0.38300
N710        N  0.06452599  0.41578390  0.03284354    -0.38300
C711        C  0.41006015  0.04697104  0.12923008    -0.05000
C712        C  0.37676572  0.02405729  0.10971981    -0.02100
C713        C  0.35889873  0.98227605  0.10916511     0.02900
C714        C  0.37535427  0.96390567  0.12721935    -0.05000
C715        C  0.40779287  0.98706592  0.14754031    -0.02100
C716        C  0.42402617  0.02788769  0.14932551     0.02900
C717        C  0.36309063  0.04357587  0.08846193     0.37500
C718        C  0.42610910  0.96968220  0.16636119     0.37500
C719        C  0.45688643  0.05034068  0.17111358     0.35900
C720        C  0.32582936  0.95860620  0.08822003     0.35900
N721        N  0.48289121  0.06712281  0.18871476    -0.38900
N722        N  0.29942832  0.93954713  0.07150563    -0.38900
N723        N  0.44192581  0.95763585  0.18187981    -0.38300
N724        N  0.35238836  0.05927873  0.07136754    -0.38300
C725        C  0.63103380  0.24285625  0.13585133    -0.05000
C726        C  0.65196659  0.28107601  0.12268352    -0.02100
C727        C  0.69220598  0.29831418  0.11480722     0.02900
C728        C  0.71272497  0.27799493  0.12151773    -0.05000
C729        C  0.69289747  0.24300357  0.14059355    -0.02100
C730        C  0.65230814  0.22611284  0.14834450     0.02900
C731        C  0.63156795  0.30239557  0.11643521     0.37500
C732        C  0.71283788  0.22252470  0.15074103     0.37500
C733        C  0.63172889  0.18968347  0.16670824     0.35900
C734        C  0.71086364  0.33614651  0.09834234     0.35900
N735        N  0.61524229  0.16068414  0.18143740    -0.38900
N736        N  0.72421686  0.36580330  0.08458481    -0.38900
N737        N  0.72846893  0.20594320  0.15897087    -0.38300
N738        N  0.61604375  0.32007373  0.11160956    -0.38300
C739        C  0.96636416  0.64019154  0.88309698    -0.05000
C740        C  0.98984295  0.65266629  0.85521081    -0.02100
C741        C  0.03045554  0.66601588  0.85712255     0.02900
C742        C  0.04804841  0.66961671  0.88729335    -0.05000
C743        C  0.02609653  0.66538961  0.91533863    -0.02100
C744        C  0.98498696  0.65036074  0.91320713     0.02900
C745        C  0.97130231  0.64919790  0.82451504     0.37500
C746        C  0.04521269  0.67390285  0.94625220     0.37500
C747        C  0.96118992  0.64243126  0.94184115     0.35900
C748        C  0.05351545  0.67394291  0.82802110     0.35900
N749        N  0.94186079  0.63639659  0.96447396    -0.38900
N750        N  0.07155571  0.68013498  0.80459885    -0.38900
N751        N  0.06077968  0.68128707  0.97084426    -0.38300
N752        N  0.95644553  0.64701355  0.80014052    -0.38300
C753        C  0.92533419  0.49329104  0.96544501    -0.05000
C754        C  0.91876282  0.45513209  0.96068432    -0.02100
C755        C  0.90926550  0.42905190  0.98690914     0.02900
C756        C  0.90930561  0.44206561  0.01865809    -0.05000
C757        C  0.92468592  0.48326326  0.02335000    -0.02100
C758        C  0.93300070  0.50861400  0.99661639     0.02900
C759        C  0.91748524  0.44139318  0.92823474     0.37500
C760        C  0.92792346  0.49929556  0.05516615     0.37500
C761        C  0.94904070  0.55055066  0.00079954     0.35900
C762        C  0.89571926  0.38809568  0.98015022     0.35900
N763        N  0.96293837  0.58424523  0.00416683    -0.38900
N764        N  0.88407262  0.35554854  0.97337727    -0.38900
N765        N  0.93017645  0.51220597  0.08047138    -0.38300
N766        N  0.91673709  0.43039077  0.90242938    -0.38300
C767        C  0.61659155  0.97295660  0.88487732    -0.05000
C768        C  0.62426812  0.99369885  0.85559033    -0.02100
C769        C  0.64404447  0.03540564  0.85524922     0.02900
C770        C  0.65619912  0.05659059  0.88424736    -0.05000
C771        C  0.65366167  0.03607811  0.91277906    -0.02100
C772        C  0.63385531  0.99428459  0.91309238     0.02900
C773        C  0.61025395  0.97200763  0.82585653     0.37500
C774        C  0.67165370  0.05790788  0.94172778     0.37500
C775        C  0.63030656  0.97318790  0.94249615     0.35900
C776        C  0.64956800  0.05619909  0.82523297     0.35900
N777        N  0.62816295  0.95654719  0.96595660    -0.38900
N778        N  0.65386353  0.07231776  0.80104885    -0.38900
N779        N  0.68672523  0.07475963  0.96494855    -0.38300
N780        N  0.59963251  0.95511397  0.80190872    -0.38300
C781        C  0.59791093  0.14339790  0.98376274    -0.05000
C782        C  0.55724473  0.11371487  0.98669066    -0.02100
C783        C  0.53717832  0.10880945  0.01614698     0.02900
C784        C  0.55795854  0.13140911  0.04288572    -0.05000
C785        C  0.59905639  0.15323335  0.04179386    -0.02100
C786        C  0.61850349  0.16356958  0.01226858     0.02900
C787        C  0.53518602  0.09011254  0.95944530     0.37500
C788        C  0.62151525  0.16579304  0.07110679     0.37500
C789        C  0.65814474  0.19824941  0.01220947     0.35900
C790        C  0.49564853  0.07943771  0.01981774     0.35900
N791        N  0.68918866  0.22651834  0.01271303    -0.38900
N792        N  0.46255077  0.05580845  0.02304649    -0.38900
N793        N  0.64023927  0.17441099  0.09410137    -0.38300
N794        N  0.51736278  0.07112857  0.93778036    -0.38300
C795        C  0.76620338  0.20602030  0.97040796    -0.05000
C796        C  0.80679112  0.23507365  0.97005704    -0.02100
C797        C  0.82614510  0.25272939  0.99907332     0.02900
C798        C  0.80413883  0.24450495  0.02759805    -0.05000
C799        C  0.76560744  0.21116255  0.02864824    -0.02100
C800        C  0.74720638  0.19100568  0.00012235     0.02900
C801        C  0.82751036  0.24938939  0.93980859     0.37500
C802        C  0.74389527  0.19948685  0.05861136     0.37500
C803        C  0.70753865  0.15690723  0.00104076     0.35900
C804        C  0.86854811  0.27845328  0.00000138     0.35900
N805        N  0.67582655  0.12971632  0.00220643    -0.38900
N806        N  0.90264322  0.29776653  0.00079243    -0.38900
N807        N  0.72643963  0.18993904  0.08248524    -0.38300
N808        N  0.84394157  0.26105753  0.91562304    -0.38300
C809        C  0.77827130  0.31074392  0.88477736    -0.05000
C810        C  0.78714565  0.32992616  0.91486903    -0.02100
C811        C  0.80590583  0.37120603  0.91657896     0.02900
C812        C  0.81668651  0.39415932  0.88838546    -0.05000
C813        C  0.81188189  0.37564476  0.85840402    -0.02100
C814        C  0.79229965  0.33382286  0.85660180     0.02900
C815        C  0.77597249  0.30800568  0.94479059     0.37500
C816        C  0.82499242  0.39937112  0.82944730     0.37500
C817        C  0.78501230  0.31443924  0.82583523     0.35900
C818        C  0.81285582  0.38987274  0.94780060     0.35900
N819        N  0.77931462  0.29885795  0.80130568    -0.38900
N820        N  0.81761902  0.40400702  0.97286413    -0.38900
N821        N  0.83563681  0.41848894  0.80640773    -0.38300
N822        N  0.76847561  0.29352925  0.96995403    -0.38300
C823        C  0.39438300  0.35664398  0.89172258    -0.05000
C824        C  0.38178390  0.36469451  0.92096064    -0.02100
C825        C  0.36118447  0.38535168  0.92099548     0.02900
C826        C  0.35674493  0.40146727  0.89231496    -0.05000
C827        C  0.36600284  0.39045591  0.86294647    -0.02100
C828        C  0.38371710  0.36713315  0.86265898     0.02900
C829        C  0.39408316  0.35627923  0.95103063     0.37500
C830        C  0.36007475  0.40551901  0.83308493     0.37500
C831        C  0.39384590  0.35653814  0.83235551     0.35900
C832        C  0.34464702  0.39043976  0.95035892     0.35900
N833        N  0.40161673  0.34800659  0.80809035    -0.38900
N834        N  0.33028979  0.39377204  0.97343728    -0.38900
N835        N  0.35559320  0.41743366  0.80910946    -0.38300
N836        N  0.40444598  0.35064935  0.97527346    -0.38300
C837        C  0.43201981  0.18646096  0.02625343    -0.05000
C838        C  0.44909775  0.18390895  0.99748181    -0.02100
C839        C  0.45856065  0.21219594  0.97324843     0.02900
C840        C  0.44200665  0.23662402  0.97347899    -0.05000
C841        C  0.41660674  0.23236788  0.99923467    -0.02100
C842        C  0.41291061  0.20848871  0.02620864     0.02900
C843        C  0.46291281  0.15633762  0.99493891     0.37500
C844        C  0.39626107  0.25413419  0.99896797     0.37500
C845        C  0.39183594  0.20854124  0.05462963     0.35900
C846        C  0.49221782  0.22139891  0.95329738     0.35900
N847        N  0.37483841  0.20830268  0.07735429    -0.38900
N848        N  0.52104994  0.22801396  0.94056604    -0.38900
N849        N  0.37924628  0.27083598  0.99901676    -0.38300
N850        N  0.47403141  0.13454360  0.99185758    -0.38300
C851        C  0.63674396  0.42542013  0.89145699    -0.05000
C852        C  0.65690341  0.46265611  0.87534979    -0.02100
C853        C  0.69889252  0.48456082  0.87333751     0.02900
C854        C  0.72126517  0.46920299  0.88653377    -0.05000
C855        C  0.70090659  0.43031119  0.89913228    -0.02100
C856        C  0.65969705  0.40953904  0.90307984     0.02900
C857        C  0.63502735  0.47934835  0.86134636     0.37500
C858        C  0.72165175  0.41008074  0.90786916     0.37500
C859        C  0.64192797  0.37163373  0.91976179     0.35900
C860        C  0.71886404  0.52314237  0.85810799     0.35900
N861        N  0.62841979  0.34167428  0.93315078    -0.38900
N862        N  0.73457986  0.55377555  0.84566133    -0.38900
N863        N  0.73512411  0.39122925  0.91532411    -0.38300
N864        N  0.61770724  0.49274111  0.85002655    -0.38300
C865        C  0.54093819  0.25963688  0.87078192    -0.05000
C866        C  0.58191116  0.28254663  0.86515544    -0.02100
C867        C  0.60582373  0.26564303  0.86807338     0.02900
C868        C  0.58833019  0.22457087  0.87361507    -0.05000
C869        C  0.54651489  0.20049069  0.87274468    -0.02100
C870        C  0.52285315  0.21810099  0.87145044     0.02900
C871        C  0.59882163  0.32300655  0.85439528     0.37500
C872        C  0.52776241  0.15795171  0.87565169     0.37500
C873        C  0.48017696  0.19384189  0.87322416     0.35900
C874        C  0.64843755  0.29080780  0.86580798     0.35900
N875        N  0.44608157  0.17453719  0.87462267    -0.38900
N876        N  0.68241234  0.31120504  0.86415170    -0.38900
N877        N  0.51282642  0.12396308  0.87779875    -0.38300
N878        N  0.61199517  0.35474688  0.84443509    -0.38300
C879        C  0.66543424  0.62706717  0.12488626    -0.05000
C880        C  0.65670265  0.63944906  0.15373190    -0.02100
C881        C  0.63772966  0.66144509  0.15290289     0.02900
C882        C  0.62595749  0.66937568  0.12330611    -0.05000
C883        C  0.64040615  0.66258782  0.09459375    -0.02100
C884        C  0.66099184  0.64202872  0.09553845     0.02900
C885        C  0.66392897  0.62660604  0.18416269     0.37500
C886        C  0.63072174  0.67307478  0.06413435     0.37500
C887        C  0.67542042  0.63388980  0.06635479     0.35900
C888        C  0.62742049  0.67323699  0.18252880     0.35900
N889        N  0.68776018  0.62780301  0.04331891    -0.38900
N890        N  0.61958919  0.68294325  0.20619188    -0.38900
N891        N  0.62302404  0.68132537  0.03973003    -0.38300
N892        N  0.66934478  0.61654540  0.20868043    -0.38300
C893        C  0.76680978  0.57846668  0.02946474    -0.05000
C894        C  0.80245485  0.57922535  0.03515496    -0.02100
C895        C  0.82475169  0.57732749  0.00924233     0.02900
C896        C  0.81300637  0.57700804  0.97704775    -0.05000
C897        C  0.78096161  0.58312455  0.97169564    -0.02100
C898        C  0.75734236  0.58237328  0.99765034     0.02900
C899        C  0.81384057  0.57721747  0.06781613     0.37500
C900        C  0.76992662  0.58723714  0.93946570     0.37500
C901        C  0.72166361  0.58302642  0.99124621     0.35900
C902        C  0.85819194  0.57293442  0.01628939     0.35900
N903        N  0.69331948  0.58344941  0.98517870    -0.38900
N904        N  0.88430297  0.56876388  0.02273889    -0.38900
N905        N  0.76102029  0.59090270  0.91389548    -0.38300
N906        N  0.82302616  0.57549805  0.09378460    -0.38300
C907        C  0.56624761  0.48168445  0.03465739    -0.05000
C908        C  0.53353691  0.44294797  0.03829770    -0.02100
C909        C  0.51713285  0.41870255  0.01114244     0.02900
C910        C  0.53152542  0.43412345  0.98019837    -0.05000
C911        C  0.55782126  0.47532335  0.97661235    -0.02100
C912        C  0.57449776  0.49908059  0.00402104     0.02900
C913        C  0.51818827  0.42722465  0.06991894     0.37500
C914        C  0.57095880  0.49269760  0.94506620     0.44700
C915        C  0.59925328  0.54154636  0.00115485     0.35900
C916        C  0.48774500  0.37719982  0.01535491     0.35900
N917        N  0.61763827  0.57562168  0.99893718    -0.38900
N918        N  0.46474938  0.34402215  0.01910157    -0.38900
N919        N  0.58166174  0.50661249  0.91991461    -0.38300
N920        N  0.50529239  0.41470483  0.09503786    -0.38300
C921        C  0.56474729  0.38338428  0.10922058    -0.05000
C922        C  0.55706032  0.36138997  0.08030056    -0.02100
C923        C  0.53345420  0.32000874  0.08078912     0.02900
C924        C  0.51841932  0.29965354  0.10997090    -0.05000
C925        C  0.51999099  0.32104354  0.13742704    -0.02100
C926        C  0.54175880  0.36300418  0.13665219     0.02900
C927        C  0.57276091  0.38042084  0.04946627     0.37500
C928        C  0.49971785  0.29997276  0.16634950     0.37500
C929        C  0.53778456  0.38459081  0.16294058     0.35900
C930        C  0.52554987  0.29821670  0.05097632     0.35900
N931        N  0.53314145  0.40149580  0.18347556    -0.38900
N932        N  0.51971533  0.28179525  0.02684453    -0.38900
N933        N  0.48319558  0.28313434  0.18937732    -0.38300
N934        N  0.58516742  0.39506217  0.02476778    -0.38300
C935        C  0.75201624  0.47035910  0.10656603    -0.05000
C936        C  0.76885700  0.46808367  0.07739464    -0.02100
C937        C  0.79631758  0.45550184  0.07708722     0.02900
C938        C  0.80329769  0.43979624  0.10515382    -0.05000
C939        C  0.78693792  0.44266104  0.13458610    -0.02100
C940        C  0.76250993  0.45933869  0.13536838     0.02900
C941        C  0.75738903  0.47773868  0.04724881     0.37500
C942        C  0.79337114  0.42671853  0.16369828     0.37500
C943        C  0.74660693  0.46344857  0.16549668     0.35900
C944        C  0.81754270  0.45913510  0.04759368     0.35900
N945        N  0.73393570  0.46703490  0.18944655    -0.38900
N946        N  0.83442683  0.46272451  0.02394249    -0.38900
N947        N  0.79837687  0.41384993  0.18692951    -0.38300
N948        N  0.74805958  0.48444444  0.02290982    -0.38300
C949        C  0.66539205  0.16611343  0.71852360    -0.05000
C950        C  0.69661362  0.16442902  0.73348969    -0.02100
C951        C  0.69872723  0.16374038  0.76730038     0.02900
C952        C  0.66955470  0.16461926  0.78659878    -0.05000
C953        C  0.63807169  0.16573673  0.77154068    -0.02100
C954        C  0.63623834  0.16688086  0.73782098     0.02900
C955        C  0.72552345  0.16133831  0.71411784     0.37500
C956        C  0.60752900  0.16645487  0.79046677     0.37500
C957        C  0.60463956  0.17010090  0.72325005     0.35900
C958        C  0.72973867  0.15974191  0.78213238     0.35900
N959        N  0.57911689  0.17280794  0.71251063    -0.38900
N960        N  0.75424054  0.15616821  0.79394889    -0.38900
N961        N  0.58247370  0.16677990  0.80469781    -0.38300
N962        N  0.74844773  0.15869818  0.69862379    -0.38300
C963        C  0.85077143  0.34817633  0.21087711    -0.05000
C964        C  0.88605929  0.36644932  0.22880259    -0.02100
C965        C  0.88516441  0.35954778  0.26219911     0.02900
C966        C  0.84885324  0.33690629  0.27874909    -0.05000
C967        C  0.81381624  0.31718973  0.26052997    -0.02100
C968        C  0.81458979  0.32393256  0.22716898     0.02900
C969        C  0.92365628  0.39153077  0.21282154     0.37500
C970        C  0.77715901  0.28771238  0.27545051     0.37500
C971        C  0.77760302  0.30787722  0.21005791     0.35900
C972        C  0.92170884  0.36964440  0.27794393     0.35900
N973        N  0.74784509  0.29575911  0.19690585    -0.38900
N974        N  0.95143610  0.37608317  0.28863928    -0.38900
N975        N  0.74805692  0.26277596  0.28659929    -0.38300
N976        N  0.95356231  0.41182855  0.20007373    -0.38300
C977        C  0.74121748  0.21112804  0.52669757    -0.05000
C978        C  0.73065884  0.19142149  0.49704491    -0.02100
C979        C  0.75174275  0.21090572  0.46877606     0.02900
C980        C  0.78166361  0.25120407  0.46926360    -0.05000
C981        C  0.79440676  0.26983132  0.49930689    -0.02100
C982        C  0.77549778  0.24922127  0.52793510     0.02900
C983        C  0.69728023  0.15153027  0.49511676     0.37500
C984        C  0.82535472  0.31100238  0.50072357     0.37500
C985        C  0.79056798  0.26783488  0.55866351     0.35900
C986        C  0.74203734  0.18935289  0.43909905     0.35900
N987        N  0.80337618  0.28269275  0.58307073    -0.38900
N988        N  0.73430978  0.17066260  0.41610758    -0.38900
N989        N  0.84986008  0.34395775  0.50215138    -0.38300
N990        N  0.67093601  0.11960611  0.49240346    -0.38300
C991        C  0.85483072  0.53015054  0.71634161    -0.05000
C992        C  0.82014935  0.51368682  0.73534967    -0.02100
C993        C  0.82240908  0.51564255  0.76925059     0.02900
C994        C  0.85928428  0.53173477  0.78473981    -0.05000
C995        C  0.89357320  0.54410636  0.76582695    -0.02100
C996        C  0.89145730  0.54363879  0.73187576     0.02900
C997        C  0.78209644  0.49035052  0.72005598     0.37500
C998        C  0.93121183  0.55744330  0.78131250     0.37500
C999        C  0.92701005  0.55640827  0.71306843     0.35900
C1000       C  0.78650578  0.49924702  0.78823665     0.35900
N1001       N  0.95536897  0.56607661  0.69817117    -0.38900
N1002       N  0.75776582  0.48595697  0.80330101    -0.38900
N1003       N  0.96123902  0.56786636  0.79360297    -0.38300
N1004       N  0.75200296  0.47028030  0.70779441    -0.38300
C1005       C  0.85526236  0.47999320  0.51484028    -0.05000
C1006       C  0.88264692  0.46732746  0.50948167    -0.02100
C1007       C  0.87884805  0.44399264  0.48234874     0.02900
C1008       C  0.84736985  0.43252358  0.46083390    -0.05000
C1009       C  0.82259673  0.44814975  0.46425705    -0.02100
C1010       C  0.82672808  0.47225719  0.49048077     0.02900
C1011       C  0.91451735  0.47777700  0.53184134     0.37500
C1012       C  0.79038720  0.43722038  0.44206139     0.37500
C1013       C  0.79754040  0.48424943  0.49343978     0.35900
C1014       C  0.90666849  0.43092642  0.47686661     0.35900
N1015       N  0.77326441  0.49236970  0.49549302    -0.38900
N1016       N  0.92881098  0.42043603  0.47230159    -0.38900
N1017       N  0.76372187  0.42914717  0.42572515    -0.38300
N1018       N  0.94002721  0.48612441  0.54964887    -0.38300
C1019       C  0.74006090  0.30541840  0.61150339    -0.05000
C1020       C  0.74526451  0.32607230  0.58262080    -0.02100
C1021       C  0.76549435  0.36750774  0.58224158     0.02900
C1022       C  0.78026473  0.38941836  0.61101927    -0.05000
C1023       C  0.77687152  0.36858050  0.63978122    -0.02100
C1024       C  0.75733190  0.32667023  0.63983769     0.02900
C1025       C  0.72935524  0.30473641  0.55276902     0.37500
C1026       C  0.79125198  0.38977141  0.66967915     0.37500
C1027       C  0.75288496  0.30526231  0.66931337     0.35900
C1028       C  0.77007330  0.38669478  0.55157318     0.35900
N1029       N  0.74923737  0.28798495  0.69276412    -0.38900
N1030       N  0.77202037  0.40006785  0.52652173    -0.38900
N1031       N  0.80259257  0.40671806  0.69355883    -0.38300
N1032       N  0.71699714  0.28877574  0.52863899    -0.38300
C1033       C  0.47008829  0.15503416  0.28868109    -0.05000
C1034       C  0.44955898  0.12106448  0.26934311    -0.02100
C1035       C  0.44826633  0.12479351  0.23581788     0.02900
C1036       C  0.47284026  0.16153471  0.22062583    -0.05000
C1037       C  0.49511139  0.19532885  0.23960620    -0.02100
C1038       C  0.49136775  0.19254057  0.27337575     0.02900
C1039       C  0.43002852  0.08207581  0.28364051     0.37500
C1040       C  0.52359757  0.23245411  0.22451859     0.37500
C1041       C  0.50971129  0.22851741  0.29194288     0.35900
C1042       C  0.41945474  0.09132506  0.21733388     0.35900
N1043       N  0.52361525  0.25781195  0.30605430    -0.38900
N1044       N  0.39514075  0.06469762  0.20328390    -0.38900
N1045       N  0.54697609  0.26180553  0.21251620    -0.38300
N1046       N  0.41537114  0.05086296  0.29490295    -0.38300
C1047       C  0.54930641  0.10791321  0.53811899    -0.05000
C1048       C  0.55762226  0.09041635  0.51220695    -0.02100
C1049       C  0.54214740  0.08969132  0.48148016     0.02900
C1050       C  0.51713434  0.10512034  0.47738984    -0.05000
C1051       C  0.50092178  0.11215166  0.50511233    -0.02100
C1052       C  0.51794912  0.11494192  0.53526459     0.02900
C1053       C  0.58152491  0.07287416  0.51766443     0.37500
C1054       C  0.46963065  0.12094394  0.50243912     0.37500
C1055       C  0.50596118  0.12942241  0.56220591     0.35900
C1056       C  0.55331810  0.07492881  0.45428954     0.35900
N1057       N  0.49535855  0.14132378  0.58278147    -0.38900
N1058       N  0.56189882  0.06242980  0.43275814    -0.38900
N1059       N  0.44534438  0.12905648  0.50158431    -0.38300
N1060       N  0.59945180  0.05765631  0.52256612    -0.38300
C1061       C  0.61679513  0.19251670  0.35856454    -0.05000
C1062       C  0.63462063  0.23026281  0.34408121    -0.02100
C1063       C  0.67571215  0.25194138  0.33897766     0.02900
C1064       C  0.69932627  0.23801169  0.35151154    -0.05000
C1065       C  0.68112888  0.19712946  0.35727190    -0.02100
C1066       C  0.63954021  0.17430628  0.36169624     0.02900
C1067       C  0.61148313  0.24765395  0.33524224     0.37500
C1068       C  0.70406370  0.17828812  0.35343747     0.37500
C1069       C  0.62033327  0.13253432  0.36870644     0.35900
C1070       C  0.69395469  0.28723409  0.31920403     0.35900
N1071       N  0.60517910  0.09893203  0.37350873    -0.38900
N1072       N  0.70870836  0.31480645  0.30269973    -0.38900
N1073       N  0.72212269  0.16313010  0.34869913    -0.38300
N1074       N  0.59438203  0.26294203  0.32774478    -0.38300
C1075       C  0.47745135  0.34986761  0.72297870    -0.05000
C1076       C  0.48848534  0.38430826  0.74123059    -0.02100
C1077       C  0.49261980  0.38409997  0.77489647     0.02900
C1078       C  0.48595664  0.34952647  0.79094355    -0.05000
C1079       C  0.47511602  0.31521689  0.77277061    -0.02100
C1080       C  0.46993996  0.31504249  0.73924949     0.02900
C1081       C  0.49415068  0.41980721  0.72562692     0.37500
C1082       C  0.47148581  0.28045415  0.78820797     0.37500
C1083       C  0.45751999  0.27875143  0.72181017     0.35900
C1084       C  0.50270758  0.41938576  0.79306172     0.35900
N1085       N  0.44707158  0.24919750  0.70867403    -0.38900
N1086       N  0.51080425  0.44755712  0.80751951    -0.38900
N1087       N  0.46898933  0.25271705  0.80011062    -0.38300
N1088       N  0.49863324  0.44811305  0.71321558    -0.38300
C1089       C  0.45859144  0.25270742  0.53804643    -0.05000
C1090       C  0.43117554  0.24327752  0.51297273    -0.02100
C1091       C  0.43299493  0.22352453  0.48498208     0.02900
C1092       C  0.46277633  0.21368632  0.48169861    -0.05000
C1093       C  0.48910558  0.22200981  0.50759332    -0.02100
C1094       C  0.48655227  0.24057058  0.53539434     0.02900
C1095       C  0.40286070  0.25619325  0.51512034     0.37500
C1096       C  0.52132083  0.21407316  0.50558197     0.37500
C1097       C  0.51581909  0.24953013  0.55996927     0.35900
C1098       C  0.40672203  0.21686263  0.45847481     0.35900
N1099       N  0.54119081  0.25516512  0.57704937    -0.38900
N1100       N  0.38593164  0.21176876  0.43718380    -0.38900
N1101       N  0.54784132  0.20914919  0.50510397    -0.38300
N1102       N  0.38037406  0.26669326  0.51685462    -0.38300
C1103       C  0.70767483  0.50193148  0.62558640    -0.05000
C1104       C  0.68617089  0.48839088  0.59678377    -0.02100
C1105       C  0.64626670  0.45877374  0.59739098     0.02900
C1106       C  0.62559851  0.44674389  0.62672522    -0.05000
C1107       C  0.64529029  0.46536161  0.65535680    -0.02100
C1108       C  0.68668684  0.49255830  0.65485403     0.02900
C1109       C  0.70479722  0.50386494  0.56591179     0.37500
C1110       C  0.62342952  0.45467852  0.68527028     0.37500
C1111       C  0.70737498  0.51145428  0.68401747     0.35900
C1112       C  0.62772292  0.43952766  0.56745893     0.35900
N1113       N  0.72346669  0.52711733  0.70737219    -0.38900
N1114       N  0.61507228  0.42487800  0.54295100    -0.38900
N1115       N  0.60567188  0.44588408  0.70902835    -0.38300
N1116       N  0.71703700  0.51497061  0.54037845    -0.38300
C1117       C  0.52991178  0.26070579  0.64814162    -0.05000
C1118       C  0.57132425  0.27977538  0.65111026    -0.02100
C1119       C  0.59062177  0.25839579  0.64648256     0.02900
C1120       C  0.56847922  0.21709839  0.64190101    -0.05000
C1121       C  0.52725228  0.19718548  0.64741284    -0.02100
C1122       C  0.50762068  0.21893301  0.64860525     0.02900
C1123       C  0.59416207  0.32185761  0.65772790     0.37500
C1124       C  0.50529281  0.15471552  0.65168800     0.37500
C1125       C  0.46491876  0.19850683  0.64747455     0.35900
C1126       C  0.63328002  0.27932824  0.64697265     0.35900
N1127       N  0.43078984  0.18225960  0.64637055    -0.38900
N1128       N  0.66736062  0.29766967  0.64818750    -0.38900
N1129       N  0.48790383  0.12082505  0.65558100    -0.38300
N1130       N  0.61254492  0.35524747  0.66351775    -0.38300
C1131       C  0.67285693  0.52937097  0.28778862    -0.05000
C1132       C  0.70249788  0.56172637  0.26965688    -0.02100
C1133       C  0.70389662  0.55978320  0.23573025     0.02900
C1134       C  0.67594150  0.52547864  0.21913108    -0.05000
C1135       C  0.64873243  0.49219918  0.23725030    -0.02100
C1136       C  0.64615175  0.49440940  0.27100454     0.02900
C1137       C  0.73118549  0.59784620  0.28557574     0.37500
C1138       C  0.62645175  0.45432417  0.22146811     0.37500
C1139       C  0.61640227  0.45983104  0.28818150     0.35900
C1140       C  0.73414544  0.59349535  0.21791267     0.35900
N1141       N  0.59219519  0.43189744  0.30126821    -0.38900
N1142       N  0.75833994  0.62032417  0.20368938    -0.38900
N1143       N  0.61007684  0.42378059  0.20917427    -0.38300
N1144       N  0.75423059  0.62668516  0.29816954    -0.38300
C1145       C  0.77441682  0.58870163  0.47368520    -0.05000
C1146       C  0.80703480  0.58334134  0.47607609    -0.02100
C1147       C  0.82771403  0.59053795  0.50524257     0.02900
C1148       C  0.81306677  0.59798153  0.53352838    -0.05000
C1149       C  0.78387321  0.60847324  0.53029830    -0.02100
C1150       C  0.76641470  0.60615155  0.49991991     0.02900
C1151       C  0.81745934  0.56700975  0.44945862     0.37500
C1152       C  0.76995413  0.61892262  0.55856107     0.37500
C1153       C  0.74033691  0.62140935  0.49563031     0.35900
C1154       C  0.86228562  0.58692758  0.50655883     0.35900
N1155       N  0.72049104  0.63480319  0.49204801    -0.38900
N1156       N  0.89022605  0.58448025  0.50644506    -0.38900
N1157       N  0.75877514  0.62716197  0.58120233    -0.38300
N1158       N  0.82607118  0.55301075  0.42911329    -0.38300
C1159       C  0.58329053  0.47843254  0.48161007    -0.05000
C1160       C  0.59524906  0.49474009  0.51267139    -0.02100
C1161       C  0.56990249  0.47698802  0.53929643     0.02900
C1162       C  0.53522526  0.43976551  0.53609861    -0.05000
C1163       C  0.52254041  0.42397503  0.50525533    -0.02100
C1164       C  0.54476261  0.44486408  0.47801457     0.02900
C1165       C  0.63460531  0.52779328  0.51831263     0.37500
C1166       C  0.48959821  0.38385551  0.50159200     0.37500
C1167       C  0.52888071  0.42914604  0.44665416     0.35900
C1168       C  0.58206606  0.49445534  0.57086007     0.35900
N1169       N  0.51543780  0.41653191  0.42183459    -0.38900
N1170       N  0.59188130  0.50850640  0.59595190    -0.38900
N1171       N  0.46410959  0.35157599  0.49814701    -0.38300
N1172       N  0.66593657  0.55377094  0.52399266    -0.38300
C1173       C  0.55157835  0.29817043  0.38405663    -0.05000
C1174       C  0.58941117  0.31987656  0.39880165    -0.02100
C1175       C  0.60875523  0.36123925  0.40189397     0.02900
C1176       C  0.59166866  0.38264560  0.38976200    -0.05000
C1177       C  0.55478282  0.36149796  0.37393865    -0.02100
C1178       C  0.53462140  0.31959413  0.37154769     0.02900
C1179       C  0.60903246  0.30037449  0.41232365     0.37500
C1180       C  0.53655304  0.38245231  0.36102300     0.37500
C1181       C  0.49640978  0.29880386  0.35603891     0.35900
C1182       C  0.64673315  0.38139196  0.41803881     0.35900
N1183       N  0.46593113  0.28233470  0.34360221    -0.38900
N1184       N  0.67657980  0.39652828  0.43142701    -0.38900
N1185       N  0.52178716  0.39891856  0.35057545    -0.38300
N1186       N  0.62555864  0.28583484  0.42310432    -0.38300
C1187       C  0.75067234  0.47878163  0.36260879    -0.05000
C1188       C  0.72444696  0.43946957  0.35360479    -0.02100
C1189       C  0.73709035  0.41215655  0.35311850     0.02900
C1190       C  0.77788021  0.42551254  0.35435635    -0.05000
C1191       C  0.80520153  0.46696655  0.35432010    -0.02100
C1192       C  0.79148250  0.49366982  0.35897992     0.02900
C1193       C  0.68456705  0.42739255  0.34405786     0.37500
C1194       C  0.84728928  0.48193514  0.35328296     0.37500
C1195       C  0.81893125  0.53586837  0.35937151     0.35900
C1196       C  0.70729328  0.37082900  0.35663834     0.35900
N1197       N  0.84097668  0.56963552  0.35905419    -0.38900
N1198       N  0.68209851  0.33866273  0.36119952    -0.38900
N1199       N  0.88091237  0.49388407  0.35248689    -0.38300
N1200       N  0.65326877  0.41760768  0.33482380    -0.38300
C1201       C  0.52392726  0.66690865  0.22091773    -0.05000
C1202       C  0.52234744  0.69768908  0.23662115    -0.02100
C1203       C  0.52154557  0.69888642  0.27014358     0.02900
C1204       C  0.52445619  0.67033365  0.28868245    -0.05000
C1205       C  0.52736749  0.64007650  0.27282335    -0.02100
C1206       C  0.52637913  0.63803996  0.23907084     0.02900
C1207       C  0.52125954  0.72877988  0.21895723     0.37500
C1208       C  0.53287797  0.61175053  0.29085668     0.37500
C1209       C  0.52987000  0.60735076  0.22296298     0.35900
C1210       C  0.51672823  0.72952758  0.28499137     0.35900
N1211       N  0.53287779  0.58304549  0.21006554    -0.38900
N1212       N  0.51315892  0.75442961  0.29604279    -0.38900
N1213       N  0.53744054  0.58924644  0.30516715    -0.38300
N1214       N  0.52083737  0.75528386  0.20755148    -0.38300
C1215       C  0.60472912  0.65819639  0.39564898    -0.05000
C1216       C  0.61101969  0.64255343  0.42374043    -0.02100
C1217       C  0.63160355  0.62211568  0.42230770     0.02900
C1218       C  0.64748268  0.61859575  0.39299457    -0.05000
C1219       C  0.64563718  0.63875971  0.36573552    -0.02100
C1220       C  0.62446170  0.65879626  0.36708375     0.02900
C1221       C  0.59550154  0.64689186  0.45399609     0.37500
C1222       C  0.66201129  0.63548065  0.33555687     0.37500
C1223       C  0.62065160  0.67745177  0.33846637     0.35900
C1224       C  0.63375318  0.60225058  0.45062452     0.35900
N1225       N  0.61800478  0.69254211  0.31559339    -0.38900
N1226       N  0.63465172  0.58636439  0.47357141    -0.38900
N1227       N  0.67480308  0.63263304  0.31141287    -0.38300
N1228       N  0.58357696  0.65082349  0.47819793    -0.38300
C1229       C  0.34175074  0.86499460  0.29139532    -0.05000
C1230       C  0.35606629  0.89918529  0.27213804    -0.02100
C1231       C  0.35227736  0.89585969  0.23841687     0.02900
C1232       C  0.34188019  0.85976001  0.22323262    -0.05000
C1233       C  0.33075309  0.82631892  0.24243754    -0.02100
C1234       C  0.32605874  0.82800192  0.27578912     0.02900
C1235       C  0.37387611  0.93768404  0.28694645     0.37500
C1236       C  0.32779949  0.79129843  0.22836714     0.37500
C1237       C  0.30382021  0.79120536  0.29304867     0.35900
C1238       C  0.35492858  0.92832645  0.22014565     0.35900
N1239       N  0.28499358  0.76075255  0.30529542    -0.38900
N1240       N  0.35523286  0.95417164  0.20672106    -0.38900
N1241       N  0.32733151  0.76419700  0.21725369    -0.38300
N1242       N  0.38887453  0.96826698  0.29915887    -0.38300
C1243       C  0.34297888  0.96464900  0.39863453    -0.05000
C1244       C  0.35622898  0.98683490  0.42704226    -0.02100
C1245       C  0.36963289  0.02758520  0.42656180     0.02900
C1246       C  0.37442453  0.04745058  0.39736129    -0.05000
C1247       C  0.35427023  0.02432296  0.37045165    -0.02100
C1248       C  0.33789403  0.98269168  0.37123054     0.02900
C1249       C  0.35766283  0.96829170  0.45654410     0.37500
C1250       C  0.35075821  0.04355373  0.34221378     0.37500
C1251       C  0.31761953  0.95876948  0.34361490     0.35900
C1252       C  0.37610205  0.04863009  0.45621639     0.35900
N1253       N  0.30080503  0.93932831  0.32183437    -0.38900
N1254       N  0.37825095  0.06362027  0.48047089    -0.38900
N1255       N  0.34723977  0.05890532  0.31989193    -0.38300
N1256       N  0.35918658  0.95418493  0.48038487    -0.38300
C1257       C  0.45024345  0.83031094  0.36586668    -0.05000
C1258       C  0.48833902  0.84185467  0.37696470    -0.02100
C1259       C  0.50366269  0.81653486  0.37282694     0.02900
C1260       C  0.47906238  0.77788852  0.36036130    -0.05000
C1261       C  0.44420438  0.76976388  0.34444221    -0.02100
C1262       C  0.43061864  0.79655552  0.34642002     0.02900
C1263       C  0.51091536  0.87873540  0.39401375     0.37500
C1264       C  0.42127089  0.73317540  0.32707277     0.37500
C1265       C  0.39481404  0.78777565  0.33019209     0.35900
C1266       C  0.54306656  0.82909472  0.38425286     0.35900
N1267       N  0.36626614  0.78000345  0.31669305    -0.38900
N1268       N  0.57454328  0.83924072  0.39336474    -0.38900
N1269       N  0.40246689  0.70409658  0.31313830    -0.38300
N1270       N  0.52952360  0.90822789  0.40750674    -0.38300
C1271       C  0.15082716  0.48802254  0.28791222    -0.05000
C1272       C  0.16595378  0.46687617  0.27186524    -0.02100
C1273       C  0.16510986  0.46412097  0.23788372     0.02900
C1274       C  0.14961962  0.48305146  0.21883135    -0.05000
C1275       C  0.13451730  0.50428182  0.23507728    -0.02100
C1276       C  0.13565375  0.50719794  0.26894121     0.02900
C1277       C  0.18403497  0.44897037  0.29015030     0.37500
C1278       C  0.11735006  0.52354703  0.21734684     0.37500
C1279       C  0.12023988  0.52978812  0.28397573     0.35900
C1280       C  0.17944040  0.44060206  0.22294712     0.35900
N1281       N  0.10784999  0.54782755  0.29570069    -0.38900
N1282       N  0.19088276  0.42174851  0.21120161    -0.38900
N1283       N  0.10341657  0.53883308  0.20351115    -0.38300
N1284       N  0.19861793  0.43478738  0.30461057    -0.38300
C1285       C  0.95021966  0.37310094  0.38510754    -0.05000
C1286       C  0.97376863  0.40262764  0.36243742    -0.02100
C1287       C  0.01370889  0.41491913  0.35865981     0.02900
C1288       C  0.03401114  0.40744087  0.38290900    -0.05000
C1289       C  0.01109910  0.37823087  0.40622100    -0.02100
C1290       C  0.96894751  0.35963253  0.40623904     0.02900
C1291       C  0.95840410  0.42325366  0.34425857     0.37500
C1292       C  0.03059917  0.36784748  0.43024729     0.37500
C1293       C  0.94529982  0.32918230  0.42949293     0.35900
C1294       C  0.03367714  0.43505417  0.32922115     0.35900
N1295       N  0.92628044  0.30480260  0.44803904    -0.38900
N1296       N  0.04886437  0.45022429  0.30533943    -0.38900
N1297       N  0.04627046  0.35946155  0.44934863    -0.38300
N1298       N  0.94745826  0.44091706  0.32988113    -0.38300
C1299       C  0.23409227  0.63841251  0.37185630    -0.05000
C1300       C  0.27565332  0.65814548  0.37565652    -0.02100
C1301       C  0.29852136  0.69964922  0.37599199     0.02900
C1302       C  0.28034964  0.72260969  0.37186031    -0.05000
C1303       C  0.23989080  0.70279234  0.36283244    -0.02100
C1304       C  0.21717430  0.66103337  0.36220238     0.02900
C1305       C  0.29569321  0.63654813  0.38192320     0.37500
C1306       C  0.22045661  0.72478000  0.35557164     0.37500
C1307       C  0.17597535  0.64191948  0.35283247     0.35900
C1308       C  0.33980696  0.71738628  0.38496764     0.35900
N1309       N  0.14312449  0.62701707  0.34542649    -0.38900
N1310       N  0.37208792  0.73022875  0.39330446    -0.38900
N1311       N  0.20484229  0.74213008  0.34973173    -0.38300
N1312       N  0.31290008  0.62092977  0.38803796    -0.38300
C1313       C  0.28438788  0.52455199  0.37731722    -0.05000
C1314       C  0.31050467  0.51808392  0.39568320    -0.02100
C1315       C  0.35165397  0.54073126  0.38997853     0.02900
C1316       C  0.36736602  0.57239174  0.36782841    -0.05000
C1317       C  0.34126015  0.57494914  0.34633604    -0.02100
C1318       C  0.29972790  0.55067490  0.35078140     0.02900
C1319       C  0.29546538  0.48910638  0.42125854     0.37500
C1320       C  0.35711251  0.60184811  0.31942218     0.37500
C1321       C  0.27302349  0.55549804  0.33008589     0.35900
C1322       C  0.37775361  0.53140995  0.40714347     0.35900
N1323       N  0.25162991  0.55944039  0.31374893    -0.38900
N1324       N  0.39776898  0.52258057  0.42048892    -0.38900
N1325       N  0.36945179  0.62223875  0.29718646    -0.38300
N1326       N  0.28467519  0.46626679  0.44190179    -0.38300
C1327       C  0.52573629  0.85886804  0.71797550    -0.05000
C1328       C  0.54044834  0.83823744  0.73504000    -0.02100
C1329       C  0.54327098  0.84063031  0.76886411     0.02900
C1330       C  0.53008560  0.86280260  0.78630116    -0.05000
C1331       C  0.51614882  0.88423487  0.76863095    -0.02100
C1332       C  0.51410454  0.88222616  0.73497876     0.02900
C1333       C  0.55110781  0.81302400  0.71789125     0.37500
C1334       C  0.50465675  0.90971917  0.78439252     0.37500
C1335       C  0.50143821  0.90599486  0.71783600     0.35900
C1336       C  0.55989913  0.81999502  0.78521348     0.35900
N1337       N  0.49159349  0.92522459  0.70446140    -0.38900
N1338       N  0.57355620  0.80377351  0.79802698    -0.38900
N1339       N  0.49540487  0.93009199  0.79664237    -0.38300
N1340       N  0.55936898  0.79272947  0.70422035    -0.38300
C1341       C  0.61048641  0.97224552  0.62504593    -0.05000
C1342       C  0.61455939  0.99280121  0.65381909    -0.02100
C1343       C  0.63022754  0.03393081  0.65329276     0.02900
C1344       C  0.64385564  0.05502240  0.62423500    -0.05000
C1345       C  0.64725417  0.03576251  0.59704894    -0.02100
C1346       C  0.63037302  0.99417436  0.59735607     0.02900
C1347       C  0.60277243  0.97156678  0.68403795     0.37500
C1348       C  0.66766611  0.05873913  0.56890446     0.37500
C1349       C  0.63241819  0.97398639  0.56916085     0.35900
C1350       C  0.63076029  0.05417452  0.68244347     0.35900
N1351       N  0.63439608  0.95776522  0.54680510    -0.38900
N1352       N  0.63102828  0.06983230  0.70593445    -0.38900
N1353       N  0.68476443  0.07730556  0.54668939    -0.38300
N1354       N  0.59450289  0.95522239  0.70842149    -0.38300
C1355       C  0.54359767  0.77324434  0.46636744    -0.05000
C1356       C  0.52678599  0.79747544  0.46794108    -0.02100
C1357       C  0.53972081  0.82730309  0.49089413     0.02900
C1358       C  0.55969465  0.82589507  0.51843355    -0.05000
C1359       C  0.57873603  0.80373309  0.51652021    -0.02100
C1360       C  0.57200385  0.77869550  0.48971503     0.02900
C1361       C  0.49242175  0.78920833  0.44918436     0.37500
C1362       C  0.60456100  0.80612066  0.54208267     0.37500
C1363       C  0.59129444  0.75590362  0.48794354     0.35900
C1364       C  0.52949252  0.85751562  0.48689361     0.35900
N1365       N  0.60688413  0.73783167  0.48654259    -0.38900
N1366       N  0.52080533  0.88101452  0.48249444    -0.38900
N1367       N  0.62526363  0.80807698  0.56249257    -0.38300
N1368       N  0.46368495  0.78189251  0.43601455    -0.38300
C1369       C  0.46075424  0.90532513  0.54335907    -0.05000
C1370       C  0.48646168  0.92804491  0.51819968    -0.02100
C1371       C  0.47064871  0.93010399  0.48828639     0.02900
C1372       C  0.42928548  0.90999007  0.48431642    -0.05000
C1373       C  0.40513015  0.89677112  0.51216403    -0.02100
C1374       C  0.42066135  0.89340986  0.54139829     0.02900
C1375       C  0.52869890  0.94720069  0.52258072     0.37500
C1376       C  0.36348541  0.88339821  0.51031825     0.37500
C1377       C  0.39484630  0.87501365  0.56883123     0.35900
C1378       C  0.49654856  0.95092413  0.46155735     0.35900
N1379       N  0.37401276  0.86037338  0.59056660    -0.38900
N1380       N  0.51725761  0.96813322  0.44031212    -0.38900
N1381       N  0.33019256  0.87268420  0.50950309    -0.38300
N1382       N  0.56253156  0.96273236  0.52584245    -0.38300
C1383       C  0.14030408  0.66466906  0.72397713    -0.05000
C1384       C  0.15609489  0.70122295  0.74039525    -0.02100
C1385       C  0.16025903  0.70309008  0.77416037     0.02900
C1386       C  0.14720605  0.66819931  0.79263342    -0.05000
C1387       C  0.12994246  0.63143080  0.77617274    -0.02100
C1388       C  0.12716095  0.62982698  0.74235639     0.02900
C1389       C  0.16736235  0.73735550  0.72279094     0.37500
C1390       C  0.11400760  0.59438168  0.79365483     0.37500
C1391       C  0.11146225  0.59179894  0.72674585     0.35900
C1392       C  0.17862559  0.74150210  0.78949651     0.35900
N1393       N  0.09876540  0.56120683  0.71476099    -0.38900
N1394       N  0.19321229  0.77223329  0.80153113    -0.38900
N1395       N  0.10126995  0.56470081  0.80733632    -0.38300
N1396       N  0.17633346  0.76623142  0.70890733    -0.38300
C1397       C  0.04696147  0.66409716  0.61421332    -0.05000
C1398       C  0.02600584  0.66539665  0.64128404    -0.02100
C1399       C  0.98397907  0.64570593  0.64082559     0.02900
C1400       C  0.96282524  0.62272440  0.61390466    -0.05000
C1401       C  0.98438625  0.62502063  0.58601457    -0.02100
C1402       C  0.02590726  0.64756449  0.58577305     0.02900
C1403       C  0.04740726  0.68400435  0.67037050     0.37500
C1404       C  0.96467454  0.60060885  0.55840617     0.37500
C1405       C  0.04700116  0.65070381  0.55648916     0.35900
C1406       C  0.96270633  0.64583970  0.66914515     0.35900
N1407       N  0.06231082  0.65273335  0.53235874    -0.38900
N1408       N  0.94572806  0.64596451  0.69176740    -0.38900
N1409       N  0.95040441  0.58022774  0.53656486    -0.38300
N1410       N  0.06454813  0.69891533  0.69357090    -0.38300
C1411       C  0.10698006  0.58435305  0.52873203    -0.05000
C1412       C  0.08496431  0.54348185  0.52195683    -0.02100
C1413       C  0.08699777  0.53002130  0.49076800     0.02900
C1414       C  0.11337270  0.55728264  0.46779710    -0.05000
C1415       C  0.12833780  0.59774207  0.47275470    -0.02100
C1416       C  0.12254801  0.61079053  0.50241419     0.02900
C1417       C  0.06095196  0.51570747  0.54671260     0.37500
C1418       C  0.15081201  0.62617743  0.44775879     0.37500
C1419       C  0.13265551  0.65145334  0.50569441     0.35900
C1420       C  0.06360478  0.48851708  0.48262471     0.35900
N1421       N  0.13971916  0.68374333  0.50701988    -0.38900
N1422       N  0.04487746  0.45541606  0.47593386    -0.38900
N1423       N  0.16885110  0.64931250  0.42812731    -0.38300
N1424       N  0.04111523  0.49351131  0.56632888    -0.38300
C1425       C  0.21833483  0.74114091  0.53408153    -0.05000
C1426       C  0.23042815  0.72395976  0.51009570    -0.02100
C1427       C  0.24763180  0.74408972  0.48138731     0.02900
C1428       C  0.25612599  0.78322619  0.47616015    -0.05000
C1429       C  0.24061857  0.79908312  0.49827705    -0.02100
C1430       C  0.22188016  0.77817122  0.52719387     0.02900
C1431       C  0.22566644  0.68498292  0.51408393     0.37500
C1432       C  0.24467169  0.83708836  0.49178380     0.37500
C1433       C  0.20819923  0.79578066  0.55040271     0.35900
C1434       C  0.25713258  0.72348106  0.45751189     0.35900
N1435       N  0.19724980  0.80985262  0.56895184    -0.38900
N1436       N  0.26425724  0.70507192  0.44028248    -0.38900
N1437       N  0.24790947  0.86747271  0.48659519    -0.38300
N1438       N  0.22295009  0.65437522  0.51598490    -0.38300
C1439       C  0.37457485  0.77536987  0.63210087    -0.05000
C1440       C  0.35406634  0.73450003  0.62380749    -0.02100
C1441       C  0.31304360  0.71046524  0.62907218     0.02900
C1442       C  0.29082565  0.72710853  0.64068557    -0.05000
C1443       C  0.31162169  0.76607454  0.65273547    -0.02100
C1444       C  0.35317918  0.78991454  0.64886231     0.02900
C1445       C  0.37392512  0.71631936  0.60832810     0.37500
C1446       C  0.29038579  0.78144879  0.66995859     0.37500
C1447       C  0.37332002  0.82952950  0.66200601     0.35900
C1448       C  0.29423847  0.66862351  0.62131372     0.35900
N1449       N  0.38924287  0.86112715  0.67252481    -0.38900
N1450       N  0.27987055  0.63544301  0.61508812    -0.38900
N1451       N  0.27345219  0.79354997  0.68393171    -0.38300
N1452       N  0.38878224  0.70125473  0.59547608    -0.38300
C1453       C  0.33707337  0.48894486  0.79376297    -0.05000
C1454       C  0.30078178  0.46807190  0.77721371    -0.02100
C1455       C  0.29973536  0.46882452  0.74340505     0.02900
C1456       C  0.33533368  0.48906611  0.72509701    -0.05000
C1457       C  0.37178099  0.50938800  0.74180968    -0.02100
C1458       C  0.37266867  0.50906788  0.77562676     0.02900
C1459       C  0.26400014  0.44406875  0.79473408     0.37500
C1460       C  0.40918216  0.53143365  0.72468288     0.37500
C1461       C  0.41085818  0.52970209  0.79135772     0.35900
C1462       C  0.26133471  0.44953403  0.72805492     0.35900
N1463       N  0.44151450  0.54581990  0.80358160    -0.38900
N1464       N  0.23046834  0.43408426  0.71618287    -0.38900
N1465       N  0.43907009  0.54944625  0.71135637    -0.38300
N1466       N  0.23470199  0.42476113  0.80854063    -0.38300
C1467       C  0.34268758  0.39837544  0.61720603    -0.05000
C1468       C  0.36028454  0.39574728  0.58861309    -0.02100
C1469       C  0.37967422  0.37393266  0.58785869     0.02900
C1470       C  0.38184026  0.35473764  0.61569383    -0.05000
C1471       C  0.36045964  0.35383186  0.64323899    -0.02100
C1472       C  0.34102658  0.37567656  0.64404206     0.02900
C1473       C  0.36152440  0.41849934  0.56080151     0.37500
C1474       C  0.36150859  0.33320766  0.67167748     0.37500
C1475       C  0.32220631  0.37754320  0.67333770     0.35900
C1476       C  0.40063094  0.37451959  0.55922404     0.35900
N1477       N  0.30725515  0.37914077  0.69672135    -0.38900
N1478       N  0.41711457  0.37543632  0.53602493    -0.38900
N1479       N  0.36250748  0.31672473  0.69428969    -0.38300
N1480       N  0.36265692  0.43683465  0.53871282    -0.38300
C1481       C  0.18235324  0.45200988  0.48889591    -0.05000
C1482       C  0.17815397  0.46982901  0.51673539    -0.02100
C1483       C  0.20447967  0.47978290  0.54229616     0.02900
C1484       C  0.22928176  0.46387603  0.54428162    -0.05000
C1485       C  0.22720434  0.43814815  0.51962830    -0.02100
C1486       C  0.20423836  0.43278501  0.49162988     0.02900
C1487       C  0.14688473  0.47854460  0.51933204     0.37500
C1488       C  0.25138937  0.42037139  0.52163169     0.37500
C1489       C  0.20279342  0.40743755  0.46601064     0.35900
C1490       C  0.20887219  0.51023136  0.56427513     0.35900
N1491       N  0.20122749  0.38684673  0.44561427    -0.38900
N1492       N  0.21352400  0.53612476  0.58035264    -0.38900
N1493       N  0.27081094  0.40624567  0.52318513    -0.38300
N1494       N  0.12178852  0.48503701  0.52327549    -0.38300
C1495       C  0.39244673  0.54847347  0.53028162    -0.05000
C1496       C  0.42867191  0.55154008  0.52148026    -0.02100
C1497       C  0.44782632  0.57102908  0.49259898     0.02900
C1498       C  0.43204441  0.58946043  0.47385136    -0.05000
C1499       C  0.39371558  0.58187675  0.48063109    -0.02100
C1500       C  0.37325396  0.55964172  0.50759661     0.02900
C1501       C  0.44676180  0.53566836  0.54206530     0.37500
C1502       C  0.37453140  0.59659380  0.45980269     0.37500
C1503       C  0.33218967  0.54858173  0.51134409     0.35900
C1504       C  0.48336115  0.57194057  0.48227871     0.35900
N1505       N  0.29967920  0.54085036  0.51260245    -0.38900
N1506       N  0.51101989  0.57138362  0.47378130    -0.38900
N1507       N  0.35842796  0.60800267  0.44394875    -0.38300
N1508       N  0.46140814  0.52313828  0.55844858    -0.38300
C1509       C  0.42658153  0.64145652  0.63422007    -0.05000
C1510       C  0.42250296  0.66909292  0.65290454    -0.02100
C1511       C  0.44958673  0.71017390  0.64933296     0.02900
C1512       C  0.47942958  0.72413124  0.62563284    -0.05000
C1513       C  0.48574969  0.69686467  0.60900507    -0.02100
C1514       C  0.46053326  0.65583951  0.61420968     0.02900
C1515       C  0.39064702  0.65564327  0.67591747     0.37500
C1516       C  0.51795480  0.71094750  0.58610525     0.37500
C1517       C  0.46960968  0.62886870  0.59818488     0.35900
C1518       C  0.44547050  0.73826774  0.66888682     0.35900
N1519       N  0.47791517  0.60788583  0.58582191    -0.38900
N1520       N  0.44242362  0.76069893  0.68462521    -0.38900
N1521       N  0.54348459  0.72146877  0.56775273    -0.38300
N1522       N  0.36560212  0.64579508  0.69461522    -0.38300
C1523       C  0.22115314  0.51901928  0.66054415    -0.05000
C1524       C  0.18383494  0.49757379  0.64569037    -0.02100
C1525       C  0.16144782  0.51590055  0.64045500     0.02900
C1526       C  0.17542343  0.55457045  0.65170526    -0.05000
C1527       C  0.20788853  0.57175369  0.67277963    -0.02100
C1528       C  0.23054781  0.55370839  0.67734490     0.02900
C1529       C  0.17078828  0.45881989  0.63245646     0.37500
C1530       C  0.21962597  0.60932503  0.68779154     0.37500
C1531       C  0.26384073  0.57071294  0.69892386     0.35900
C1532       C  0.12624053  0.49656128  0.62096205     0.35900
N1533       N  0.28969864  0.58340798  0.71691635    -0.38900
N1534       N  0.09822313  0.48078939  0.60527862    -0.38900
N1535       N  0.22886917  0.63926167  0.69981402    -0.38300
N1536       N  0.16042604  0.42786692  0.62196084    -0.38300
loop_ 
_geom_bond_atom_site_label_1 
_geom_bond_atom_site_label_2 
_geom_bond_distance 
_geom_bond_site_symmetry_2 
_ccdc_geom_bond_type 
O1           C16   1.260       .  A
O1           Al9   1.923       .  S
C2           O12   1.276       .  A
C2            O3   1.271       .  A
C2         C1495   1.491       .  S
O3           Al5   1.899       .  S
O4            C6   1.262       .  A
O4           Al5   1.896       .  S
Al5          O13   1.925       .  S
Al5          O15   1.881       .  S
Al5          O14   1.777       .  S
C6           O19   1.263       .  A
C6         C1484   1.497       .  S
O7           C17   1.251       .  A
O7           Al9   1.919       .  S
O8           C21   1.276       .  A
O8          Al18   1.899       .  S
Al9          O22   1.932       .  S
Al9          O19   1.925       .  S
Al9          O14   1.796       .  S
O10          C17   1.245       .  A
O10         Al18   1.882       .  S
O11          C20   1.249       .  A
O11         Al18   1.903       .  S
O12         Al18   1.925       .  S
O13          C20   1.254       .  A
O14         Al18   1.786       .  S
O15          C16   1.255       .  A
C16        C1523   1.490       .  S
C17        C1467   1.487       .  S
C20        C1509   1.506       .  S
C21          O22   1.278       .  A
C21        C1456   1.510       .  S
O23          C38   1.279       .  A
O23         Al31   1.980       .  S
C24          O34   1.281       .  A
C24          O25   1.260       .  A
C24        C1411   1.503       .  S
O25         Al27   1.857       .  S
O26          C28   1.260       .  A
O26         Al27   1.913       .  S
Al27         O35   1.912       .  S
Al27         O37   1.874       .  S
Al27         O36   1.759       .  S
C28          O41   1.271       .  A
C28        C1425   1.512       .  S
O29          C39   1.269       .  A
O29         Al31   1.967       .  S
O30          C43   1.273       .  A
O30         Al40   1.946       .  S
Al31         O44   1.888       .  S
Al31         O41   1.958       .  S
Al31         O36   1.785       .  S
O32          C39   1.253       .  A
O32         Al40   1.858       .  S
O33          C42   1.253       .  A
O33         Al40   1.916       .  S
O34         Al40   1.996       .  S
O35          C42   1.254       .  A
O36         Al40   1.771       .  S
O37          C38   1.259       .  A
C38        C1442   1.505       .  S
C39        C1397   1.492       .  S
C42        C1526   1.485       .  S
C43          O44   1.263       .  A
C43        C1383   1.509       .  S
O45          C60   1.263       .  A
O45         Al53   1.915       .  S
C46          O56   1.258       .  A
C46          O47   1.263       .  A
C46        C1369   1.479       .  S
O47         Al49   1.915       .  S
O48          C50   1.254       .  A
O48         Al49   1.855       .  S
Al49         O57   1.866       .  S
Al49         O59   1.930       .  S
Al49         O58   1.758       .  S
C50          O63   1.273       .  A
C50        C1358   1.506       .  S
O51          C61   1.271       .  A
O51         Al53   1.928       .  S
O52          C65   1.259       .  A
O52         Al62   1.880       .  S
Al53         O66   1.944       .  S
Al53         O63   1.987       .  S
Al53         O58   1.785       .  S
O54          C61   1.268       .  A
O54         Al62   1.915       .  S
O55          C64   1.269       .  A
O55         Al62   1.951       .  S
O56         Al62   1.910       .  S
O57          C64   1.254       .  A
O58         Al62   1.767       .  S
O59          C60   1.265       .  A
C60        C1512   1.486       .  S
C61        C1341   1.491       .  S
C64        C1439   1.513       .  S
C65          O66   1.269       .  A
C65        C1327   1.490       .  S
O67          C82   1.263       .  A
O67         Al75   1.927       .  S
C68          O78   1.261       .  A
C68          O69   1.265       .  A
C68        C1414   1.487       .  S
O69         Al71   1.925       .  S
O70          C72   1.256       .  A
O70         Al71   1.857       .  S
Al71         O79   1.873       .  S
Al71         O81   1.923       .  S
Al71         O80   1.769       .  S
C72          O85   1.276       .  A
C72        C1481   1.510       .  S
O73          C83   1.272       .  A
O73         Al75   1.958       .  S
O74          C87   1.262       .  A
O74         Al84   1.898       .  S
Al75         O88   1.963       .  S
Al75         O85   1.994       .  S
Al75         O80   1.790       .  S
O76          C83   1.260       .  A
O76         Al84   1.875       .  S
O77          C86   1.261       .  A
O77         Al84   1.923       .  S
O78         Al84   1.918       .  S
O79          C86   1.256       .  A
O80         Al84   1.774       .  S
O81          C82   1.262       .  A
C82        C1313   1.494       .  S
C83        C1288   1.508       .  S
C86        C1299   1.503       .  S
C87          O88   1.274       .  A
C87        C1271   1.517       .  S
O89         C104   1.271       .  A
O89         Al97   1.942       .  S
C90         O100   1.279       .  A
C90          O91   1.258       .  A
C90        C1372   1.495       .  S
O91         Al93   1.843       .  S
O92          C94   1.256       .  A
O92         Al93   1.878       .  S
Al93        O101   1.909       .  S
Al93        O103   1.872       .  S
Al93        O102   1.769       .  S
C94         O107   1.269       .  A
C94        C1428   1.510       .  S
O95         C105   1.267       .  A
O95         Al97   1.948       .  S
O96         C109   1.270       .  A
O96        Al106   1.937       .  S
Al97        O110   1.895       .  S
Al97        O107   1.960       .  S
Al97        O102   1.798       .  S
O98         C105   1.257       .  A
O98        Al106   1.881       .  S
O99         C108   1.254       .  A
O99        Al106   1.925       .  S
O100       Al106   1.985       .  S
O101        C108   1.252       .  A
O102       Al106   1.782       .  S
O103        C104   1.260       .  A
C104       C1302   1.505       .  S
C105       C1243   1.492       .  S
C108       C1257   1.489       .  S
C109        O110   1.259       .  A
C109       C1229   1.502       .  S
O111        C126   1.261       .  A
O111       Al119   1.925       .  S
C112        O122   1.263       .  A
C112        O113   1.260       .  A
C112       C1498   1.477       .  S
O113       Al115   1.875       .  S
O114        C116   1.264       .  A
O114       Al115   1.901       .  S
Al115       O123   1.913       .  S
Al115       O125   1.912       .  S
Al115       O124   1.775       .  S
C116        O129   1.269       .  A
C116       C1355   1.498       .  S
O117        C127   1.253       .  A
O117       Al119   1.908       .  S
O118        C131   1.267       .  A
O118       Al128   1.911       .  S
Al119       O132   1.868       .  S
Al119       O129   1.930       .  S
Al119       O124   1.805       .  S
O120        C127   1.253       .  A
O120       Al128   1.888       .  S
O121        C130   1.256       .  A
O121       Al128   1.915       .  S
O122       Al128   1.912       .  S
O123        C130   1.258       .  A
O124       Al128   1.795       .  S
O125        C126   1.264       .  A
C126       C1260   1.502       .  S
C127       C1215   1.483       .  S
C130       C1316   1.497       .  S
C131        O132   1.264       .  A
C131       C1204   1.489       .  S
O133        C148   1.257       .  A
O133       Al141   1.903       .  S
C134        O144   1.270       .  A
C134        O135   1.273       .  A
C134       C1159   1.503       .  S
O135       Al137   1.939       .  S
O136        C138   1.258       .  A
O136       Al137   1.874       .  S
Al137       O145   1.923       .  S
Al137       O147   1.927       .  S
Al137       O146   1.792       .  S
C138        O151   1.268       .  A
C138       C1218   1.483       .  S
O139        C149   1.259       .  A
O139       Al141   1.947       .  S
O140        C153   1.267       .  A
O140       Al150   1.879       .  S
Al141       O154   1.958       .  S
Al141       O151   1.934       .  S
Al141       O146   1.801       .  S
O142        C149   1.252       .  A
O142       Al150   1.900       .  S
O143        C152   1.254       .  A
O143       Al150   1.907       .  S
O144       Al150   1.907       .  S
O145        C152   1.258       .  A
O146       Al150   1.784       .  S
O147        C148   1.262       .  A
C148       C1131   1.517       .  S
C149       C1145   1.504       .  S
C152       C1176   1.505       .  S
C153        O154   1.274       .  A
C153       C1187   1.495       .  S
O155        C170   1.272       .  A
O155       Al163   1.948       .  S
C156        O166   1.259       .  A
C156        O157   1.268       .  A
C156       C1162   1.476       .  S
O157       Al159   1.925       .  S
O158        C160   1.258       .  A
O158       Al159   1.895       .  S
Al159       O167   1.910       .  S
Al159       O169   1.896       .  S
Al159       O168   1.795       .  S
C160        O173   1.269       .  A
C160       C1470   1.489       .  S
O161        C171   1.267       .  A
O161       Al163   1.963       .  S
O162        C175   1.258       .  A
O162       Al172   1.875       .  S
Al163       O176   1.926       .  S
Al163       O173   1.944       .  S
Al163       O168   1.800       .  S
O164        C171   1.251       .  A
O164       Al172   1.874       .  S
O165        C174   1.252       .  A
O165       Al172   1.884       .  S
O166       Al172   1.880       .  S
O167        C174   1.254       .  A
O168       Al172   1.768       .  S
O169        C170   1.265       .  A
C170       C1075   1.503       .  S
C171       C1089   1.495       .  S
C174       C1106   1.476       .  S
C175        O176   1.262       .  A
C175       C1117   1.491       .  S
O177        C192   1.264       .  A
O177       Al185   1.900       .  S
C178        O188   1.259       .  A
C178        O179   1.276       .  A
C178       C1050   1.493       .  S
O179       Al181   1.977       .  S
O180        C182   1.255       .  A
O180       Al181   1.874       .  S
Al181       O189   1.923       .  S
Al181       O191   1.933       .  S
Al181       O190   1.781       .  S
C182        O195   1.271       .  A
C182       C1246   1.496       .  S
O183        C193   1.269       .  A
O183       Al185   1.948       .  S
O184        C197   1.258       .  A
O184       Al194   1.872       .  S
Al185       O198   1.988       .  S
Al185       O195   1.973       .  S
Al185       O190   1.794       .  S
O186        C193   1.259       .  A
O186       Al194   1.903       .  S
O187        C196   1.253       .  A
O187       Al194   1.907       .  S
O188       Al194   1.856       .  S
O189        C196   1.255       .  A
O190       Al194   1.759       .  S
O191        C192   1.271       .  A
C192       C1033   1.500       .  S
C193       C1092   1.504       .  S
C196       C1061   1.488       .  S
C197        O198   1.277       .  A
C197       C1173   1.511       .  S
O199        C214   1.270       .  A
O199       Al207   1.921       .  S
C200        O210   1.253       .  A
C200        O201   1.276       .  A
C200       C1005   1.509       .  S
O201       Al203   1.984       .  S
O202        C204   1.259       .  A
O202       Al203   1.875       .  S
Al203       O211   1.917       .  S
Al203       O213   1.942       .  S
Al203       O212   1.784       .  S
C204        O217   1.269       .  A
C204       C1400   1.500       .  S
O205        C215   1.269       .  A
O205       Al207   1.970       .  S
O206        C219   1.258       .  A
O206       Al216   1.864       .  S
Al207       O220   1.992       .  S
Al207       O217   1.955       .  S
Al207       O212   1.785       .  S
O208        C215   1.253       .  A
O208       Al216   1.898       .  S
O209        C218   1.257       .  A
O209       Al216   1.899       .  S
O210       Al216   1.860       .  S
O211        C218   1.260       .  A
O212       Al216   1.753       .  S
O213        C214   1.271       .  A
C214        C991   1.507       .  S
C215       C1148   1.500       .  S
C218       C1022   1.501       .  S
C219        O220   1.277       .  A
C219       C1103   1.484       .  S
O221        C236   1.264       .  A
O221       Al229   1.919       .  S
C222        O232   1.265       .  A
C222        O223   1.265       .  A
C222       C1008   1.482       .  S
O223       Al225   1.927       .  S
O224        C226   1.255       .  A
O224       Al225   1.879       .  S
Al225       O233   1.914       .  S
Al225       O235   1.936       .  S
Al225       O234   1.788       .  S
C226        O239   1.270       .  A
C226       C1285   1.497       .  S
O227        C237   1.268       .  A
O227       Al229   1.948       .  S
O228        C241   1.263       .  A
O228       Al238   1.883       .  S
Al229       O242   1.964       .  S
Al229       O239   1.962       .  S
Al229       O234   1.798       .  S
O230        C237   1.259       .  A
O230       Al238   1.910       .  S
O231        C240   1.257       .  A
O231       Al238   1.901       .  S
O232       Al238   1.903       .  S
O233        C240   1.259       .  A
O234       Al238   1.777       .  S
O235        C236   1.266       .  A
C236        C966   1.506       .  S
C237        C980   1.500       .  S
C240       C1190   1.492       .  S
C241        O242   1.271       .  A
C241       C1064   1.498       .  S
O243        C258   1.260       .  A
O243       Al251   1.908       .  S
C244        O254   1.257       .  A
C244        O245   1.264       .  A
C244       C1047   1.483       .  S
O245       Al247   1.943       .  S
O246        C248   1.262       .  A
O246       Al247   1.887       .  S
Al247       O255   1.910       .  S
Al247       O257   1.906       .  S
Al247       O256   1.797       .  S
C248        O261   1.268       .  A
C248       C1344   1.483       .  S
O249        C259   1.264       .  A
O249       Al251   1.936       .  S
O250        C263   1.258       .  A
O250       Al260   1.867       .  S
Al251       O264   1.935       .  S
Al251       O261   1.941       .  S
Al251       O256   1.801       .  S
O252        C259   1.258       .  A
O252       Al260   1.905       .  S
O253        C262   1.266       .  A
O253       Al260   1.936       .  S
O254       Al260   1.888       .  S
O255        C262   1.258       .  A
O256       Al260   1.777       .  S
O257        C258   1.259       .  A
C258        C949   1.493       .  S
C259        C977   1.498       .  S
C262       C1120   1.496       .  S
C263        O264   1.266       .  A
C263       C1019   1.481       .  S
O265        C280   1.266       .  A
O265       Al273   1.913       .  S
C266        O276   1.263       .  A
C266        O267   1.261       .  A
C266        C907   1.491       .  S
O267       Al269   1.902       .  S
O268        C270   1.246       .  A
O268       Al269   1.869       .  S
Al269       O277   1.879       .  S
Al269       O279   1.893       .  S
Al269       O278   1.787       .  S
C270        O283   1.258       .  A
C270        C893   1.495       .  S
O271        C281   1.265       .  A
O271       Al273   1.917       .  S
O272        C285   1.258       .  A
O272       Al282   1.912       .  S
Al273       O286   1.911       .  S
Al273       O283   1.931       .  S
Al273       O278   1.811       .  S
O274        C281   1.262       .  A
O274       Al282   1.880       .  S
O275        C284   1.264       .  A
O275       Al282   1.929       .  S
O276       Al282   1.934       .  S
O277        C284   1.255       .  A
O278       Al282   1.812       .  S
O279        C280   1.265       .  A
C280        C935   1.480       .  S
C281        C879   1.473       .  S
C284        C921   1.510       .  S
C285        O286   1.257       .  A
C285       C1134   1.508       .  S
O287        C302   1.269       .  A
O287       Al295   1.928       .  S
C288        O298   1.262       .  A
C288        O289   1.260       .  A
C288        C910   1.489       .  S
O289       Al291   1.893       .  S
O290        C292   1.250       .  A
O290       Al291   1.898       .  S
Al291       O299   1.855       .  S
Al291       O301   1.921       .  S
Al291       O300   1.778       .  S
C292        O305   1.259       .  A
C292        C840   1.498       .  S
O293        C303   1.275       .  A
O293       Al295   1.940       .  S
O294        C307   1.258       .  A
O294       Al304   1.907       .  S
Al295       O308   1.920       .  S
Al295       O305   1.946       .  S
Al295       O300   1.804       .  S
O296        C303   1.266       .  A
O296       Al304   1.902       .  S
O297        C306   1.257       .  A
O297       Al304   1.919       .  S
O298       Al304   1.910       .  S
O299        C306   1.249       .  A
O300       Al304   1.799       .  S
O301        C302   1.271       .  A
C302        C865   1.496       .  S
C303        C823   1.486       .  S
C306        C851   1.513       .  S
C307        O308   1.260       .  A
C307       C1078   1.498       .  S
O309        C324   1.268       .  A
O309       Al317   1.973       .  S
C310        O320   1.268       .  A
C310        O311   1.245       .  A
C310        C781   1.504       .  S
O311       Al313   1.825       .  S
O312        C314   1.264       .  A
O312       Al313   1.911       .  S
Al313       O321   1.916       .  S
Al313       O323   1.864       .  S
Al313       O322   1.761       .  S
C314        O327   1.265       .  A
C314        C795   1.482       .  S
O315        C325   1.265       .  A
O315       Al317   1.946       .  S
O316        C329   1.275       .  A
O316       Al326   1.946       .  S
Al317       O330   1.896       .  S
Al317       O327   1.919       .  S
Al317       O322   1.801       .  S
O318        C325   1.257       .  A
O318       Al326   1.898       .  S
O319        C328   1.259       .  A
O319       Al326   1.911       .  S
O320       Al326   1.959       .  S
O321        C328   1.261       .  A
O322       Al326   1.782       .  S
O323        C324   1.250       .  A
C324        C809   1.484       .  S
C325        C770   1.489       .  S
C328        C868   1.499       .  S
C329        O330   1.267       .  A
C329        C952   1.495       .  S
O331        C346   1.269       .  A
O331       Al339   1.938       .  S
C332        O342   1.261       .  A
C332        O333   1.252       .  A
C332        C753   1.482       .  S
O333       Al335   1.872       .  S
O334        C336   1.258       .  A
O334       Al335   1.899       .  S
Al335       O343   1.878       .  S
Al335       O345   1.897       .  S
Al335       O344   1.779       .  S
C336        O349   1.266       .  A
C336        C896   1.514       .  S
O337        C347   1.268       .  A
O337       Al339   1.925       .  S
O338        C351   1.256       .  A
O338       Al348   1.901       .  S
Al339       O352   1.938       .  S
Al339       O349   1.947       .  S
Al339       O344   1.798       .  S
O340        C347   1.263       .  A
O340       Al348   1.890       .  S
O341        C350   1.258       .  A
O341       Al348   1.906       .  S
O342       Al348   1.929       .  S
O343        C350   1.259       .  A
O344       Al348   1.802       .  S
O345        C346   1.261       .  A
C346        C854   1.499       .  S
C347        C739   1.477       .  S
C350        C812   1.482       .  S
C351        O352   1.263       .  A
C351        C994   1.500       .  S
O353        C368   1.273       .  A
O353       Al361   1.960       .  S
C354        O364   1.262       .  A
C354        O355   1.258       .  A
C354        C784   1.475       .  S
O355       Al357   1.900       .  S
O356        C358   1.253       .  A
O356       Al357   1.866       .  S
Al357       O365   1.910       .  S
Al357       O367   1.858       .  S
Al357       O366   1.759       .  S
C358        O371   1.263       .  A
C358        C837   1.490       .  S
O359        C369   1.276       .  A
O359       Al361   1.968       .  S
O360        C373   1.256       .  A
O360       Al370   1.905       .  S
Al361       O374   1.920       .  S
Al361       O371   1.941       .  S
Al361       O366   1.795       .  S
O362        C369   1.257       .  A
O362       Al370   1.848       .  S
O363        C372   1.263       .  A
O363       Al370   1.913       .  S
O364       Al370   1.930       .  S
O365        C372   1.265       .  A
O366       Al370   1.781       .  S
O367        C368   1.259       .  A
C368        C924   1.482       .  S
C369        C711   1.480       .  S
C372        C725   1.485       .  S
C373        O374   1.261       .  A
C373       C1036   1.487       .  S
O375        C390   1.269       .  A
O375       Al383   1.933       .  S
C376        O386   1.266       .  A
C376        O377   1.262       .  A
C376        C756   1.511       .  S
O377       Al379   1.899       .  S
O378        C380   1.250       .  A
O378       Al379   1.883       .  S
Al379       O387   1.892       .  S
Al379       O389   1.874       .  S
Al379       O388   1.793       .  S
C380        O393   1.254       .  A
C380        C798   1.487       .  S
O381        C391   1.271       .  A
O381       Al383   1.940       .  S
O382        C395   1.257       .  A
O382       Al392   1.920       .  S
Al383       O396   1.879       .  S
Al383       O393   1.917       .  S
Al383       O388   1.806       .  S
O384        C391   1.265       .  A
O384       Al392   1.884       .  S
O385        C394   1.262       .  A
O385       Al392   1.919       .  S
O386       Al392   1.940       .  S
O387        C394   1.259       .  A
O388       Al392   1.802       .  S
O389        C390   1.260       .  A
C390        C728   1.511       .  S
C391        C700   1.487       .  S
C394        C938   1.493       .  S
C395        O396   1.249       .  A
C395        C963   1.500       .  S
O397        C412   1.261       .  A
O397       Al405   1.904       .  S
C398        O408   1.255       .  A
C398        O399   1.257       .  A
C398        C658   1.475       .  S
O399       Al401   1.919       .  S
O400        C402   1.263       .  A
O400       Al401   1.891       .  S
Al401       O409   1.909       .  S
Al401       O411   1.909       .  S
Al401       O410   1.790       .  S
C402        O415   1.270       .  A
C402        C826   1.483       .  S
O403        C413   1.264       .  A
O403       Al405   1.916       .  S
O404        C417   1.256       .  A
O404       Al414   1.880       .  S
Al405       O418   1.934       .  S
Al405       O415   1.950       .  S
Al405       O410   1.791       .  S
O406        C413   1.264       .  A
O406       Al414   1.915       .  S
O407        C416   1.270       .  A
O407       Al414   1.936       .  S
O408       Al414   1.895       .  S
O409        C416   1.263       .  A
O410       Al414   1.772       .  S
O411        C412   1.259       .  A
C412       C1453   1.502       .  S
C413        C641   1.493       .  S
C416        C669   1.490       .  S
C417        O418   1.263       .  A
C417        C683   1.483       .  S
O419        C434   1.259       .  A
O419       Al427   1.912       .  S
C420        O430   1.263       .  A
C420        O421   1.267       .  A
C420        C599   1.510       .  S
O421       Al423   1.940       .  S
O422        C424   1.255       .  A
O422       Al423   1.850       .  S
Al423       O431   1.913       .  S
Al423       O433   1.919       .  S
Al423       O432   1.791       .  S
C424        O437   1.273       .  A
C424        C697   1.487       .  S
O425        C435   1.261       .  A
O425       Al427   1.935       .  S
O426        C439   1.262       .  A
O426       Al436   1.883       .  S
Al427       O440   1.954       .  S
Al427       O437   1.968       .  S
Al427       O432   1.797       .  S
O428        C435   1.255       .  A
O428       Al436   1.890       .  S
O429        C438   1.262       .  A
O429       Al436   1.902       .  S
O430       Al436   1.902       .  S
O431        C438   1.261       .  A
O432       Al436   1.776       .  S
O433        C434   1.261       .  A
C434       C1274   1.523       .  S
C435        C644   1.489       .  S
C438        C616   1.494       .  S
C439        O440   1.273       .  A
C439        C630   1.492       .  S
O441        C456   1.264       .  A
O441       Al449   1.941       .  S
C442        O452   1.257       .  A
C442        O443   1.261       .  A
C442        C602   1.480       .  S
O443       Al445   1.920       .  S
O444        C446   1.272       .  A
O444       Al445   1.931       .  S
Al445       O453   1.934       .  S
Al445       O455   1.892       .  S
Al445       O454   1.783       .  S
C446        O459   1.268       .  A
C446        C742   1.483       .  S
O447        C457   1.269       .  A
O447       Al449   1.954       .  S
O448        C461   1.266       .  A
O448       Al458   1.918       .  S
Al449       O462   1.932       .  S
Al449       O459   1.909       .  S
Al449       O454   1.790       .  S
O450        C457   1.259       .  A
O450       Al458   1.899       .  S
O451        C460   1.256       .  A
O451       Al458   1.879       .  S
O452       Al458   1.889       .  S
O453        C460   1.263       .  A
O454       Al458   1.767       .  S
O455        C456   1.255       .  A
C456       C1386   1.514       .  S
C457        C571   1.504       .  S
C460        C686   1.487       .  S
C461        O462   1.269       .  A
C461        C588   1.500       .  S
O463        C478   1.266       .  A
O463       Al471   1.917       .  S
C464        O474   1.269       .  A
C464        O465   1.281       .  A
C464        C560   1.494       .  S
O465       Al467   1.972       .  S
O466        C468   1.257       .  A
O466       Al467   1.878       .  S
Al467       O475   1.952       .  S
Al467       O477   1.878       .  S
Al467       O476   1.772       .  S
C468        O481   1.265       .  A
C468        C767   1.485       .  S
O469        C479   1.269       .  A
O469       Al471   1.992       .  S
O470        C483   1.272       .  A
O470       Al480   1.884       .  S
Al471       O484   1.982       .  S
Al471       O481   1.932       .  S
Al471       O476   1.780       .  S
O472        C479   1.241       .  A
O472       Al480   1.873       .  S
O473        C482   1.242       .  A
O473       Al480   1.873       .  S
O474       Al480   1.879       .  S
O475        C482   1.257       .  A
O476       Al480   1.749       .  S
O477        C478   1.260       .  A
C478       C1330   1.511       .  S
C479        C543   1.502       .  S
C482        C585   1.494       .  S
C483        O484   1.284       .  A
C483        C672   1.502       .  S
O485        C500   1.263       .  A
O485       Al493   1.915       .  S
C486        O496   1.256       .  A
C486        O487   1.262       .  A
C486        C557   1.484       .  S
O487       Al489   1.939       .  S
O488        C490   1.257       .  A
O488       Al489   1.864       .  S
Al489       O497   1.892       .  S
Al489       O499   1.928       .  S
Al489       O498   1.785       .  S
C490        O503   1.273       .  A
C490        C714   1.480       .  S
O491        C501   1.265       .  A
O491       Al493   1.927       .  S
O492        C505   1.258       .  A
O492       Al502   1.879       .  S
Al493       O506   1.949       .  S
Al493       O503   1.964       .  S
Al493       O498   1.791       .  S
O494        C501   1.260       .  A
O494       Al502   1.903       .  S
O495        C504   1.269       .  A
O495       Al502   1.932       .  S
O496       Al502   1.892       .  S
O497        C504   1.259       .  A
O498       Al502   1.767       .  S
O499        C500   1.260       .  A
C500       C1232   1.492       .  S
C501        C574   1.494       .  S
C504        C529   1.479       .  S
C505        O506   1.269       .  A
C505        C613   1.484       .  S
O507        C522   1.267       .  A
O507       Al515   1.917       .  S
C508        O518   1.265       .  A
C508        O509   1.264       .  A
C508        C655   1.472       .  S
O509       Al511   1.909       .  S
O510        C512   1.260       .  A
O510       Al511   1.899       .  S
Al511       O519   1.944       .  S
Al511       O521   1.893       .  S
Al511       O520   1.800       .  S
C512        O525   1.262       .  A
C512        C882   1.475       .  S
O513        C523   1.259       .  A
O513       Al515   1.933       .  S
O514        C527   1.258       .  A
O514       Al524   1.874       .  S
Al515       O528   1.902       .  S
Al515       O525   1.917       .  S
Al515       O520   1.800       .  S
O516        C523   1.254       .  A
O516       Al524   1.879       .  S
O517        C526   1.248       .  A
O517       Al524   1.875       .  S
O518       Al524   1.885       .  S
O519        C526   1.258       .  A
O520       Al524   1.763       .  S
O521        C522   1.266       .  A
C522       C1201   1.474       .  S
C523        C546   1.488       .  S
C526        C627   1.487       .  S
C527        O528   1.260       .  A
C527        C532   1.482       .  S
C529        C530   1.407       .  A
C529        C534   1.413       .  A
C530        C531   1.404       .  A
C530        C535   1.450       .  S
C531        C532   1.410       .  A
C531        C538   1.448       .  S
C532        C533   1.412       .  A
C533        C534   1.414       .  A
C533        C536   1.449       .  S
C534        C537   1.449       .  S
C535        N542   1.157       .  T
C536        N541   1.157       .  T
C537        N539   1.157       .  T
C538        N540   1.156       .  T
C543        C544   1.418       .  A
C543        C548   1.426   1_556  A
C544        C545   1.428   1_556  A
C544        C549   1.447       .  S
C545        C546   1.414       .  A
C545        C552   1.447       .  S
C546        C547   1.403       .  A
C547        C548   1.398       .  A
C547        C550   1.453       .  S
C548        C551   1.454       .  S
C549        N556   1.157       .  T
C550        N555   1.156       .  T
C551        N553   1.158   1_554  T
C552        N554   1.157       .  T
C557        C558   1.407       .  A
C557        C562   1.409       .  A
C558        C559   1.408       .  A
C558        C563   1.446       .  S
C559        C560   1.415   1_554  A
C559        C566   1.449       .  S
C560        C561   1.415       .  A
C561        C562   1.415   1_556  A
C561        C564   1.448       .  S
C562        C565   1.449       .  S
C563        N570   1.155       .  T
C564        N569   1.157       .  T
C565        N567   1.158       .  T
C566        N568   1.157       .  T
C571        C572   1.417   1_556  A
C571        C576   1.415       .  A
C572        C573   1.420       .  A
C572        C577   1.448       .  S
C573        C574   1.416       .  A
C573        C580   1.451       .  S
C574        C575   1.410       .  A
C575        C576   1.412   1_554  A
C575        C578   1.444   1_554  S
C576        C579   1.449       .  S
C577        N584   1.156       .  T
C578        N583   1.154       .  T
C579        N581   1.156       .  T
C580        N582   1.157       .  T
C585        C586   1.414       .  A
C585        C590   1.417       .  A
C586        C587   1.424       .  A
C586        C591   1.449       .  S
C587        C588   1.421       .  A
C587        C594   1.449       .  S
C588        C589   1.418       .  A
C589        C590   1.400       .  A
C589        C592   1.454       .  S
C590        C593   1.457       .  S
C591        N598   1.158       .  T
C592        N597   1.157       .  T
C593        N595   1.158       .  T
C594        N596   1.157       .  T
C599        C600   1.425       .  A
C599        C604   1.422   1_554  A
C600        C601   1.416       .  A
C600        C605   1.449       .  S
C601        C602   1.403   1_554  A
C601        C608   1.446       .  S
C602        C603   1.406       .  A
C603        C604   1.411       .  A
C603        C606   1.451       .  S
C604        C607   1.447       .  S
C605        N612   1.157       .  T
C606        N611   1.157       .  T
C607        N609   1.156       .  T
C608        N610   1.156       .  T
C613        C614   1.412       .  A
C613        C618   1.412       .  A
C614        C615   1.420       .  A
C614        C619   1.446       .  S
C615        C616   1.416       .  A
C615        C622   1.448       .  S
C616        C617   1.412       .  A
C617        C618   1.401       .  A
C617        C620   1.451       .  S
C618        C621   1.451       .  S
C619        N626   1.157       .  T
C620        N625   1.156       .  T
C621        N623   1.157       .  T
C622        N624   1.157       .  T
C627        C628   1.415       .  A
C627        C632   1.409       .  A
C628        C629   1.423       .  A
C628        C633   1.448       .  S
C629        C630   1.414       .  A
C629        C636   1.449       .  S
C630        C631   1.414       .  A
C631        C632   1.404       .  A
C631        C634   1.449       .  S
C632        C635   1.453       .  S
C633        N640   1.157       .  T
C634        N639   1.155       .  T
C635        N637   1.157       .  T
C636        N638   1.157       .  T
C641        C642   1.416       .  A
C641        C646   1.412   1_556  A
C642        C643   1.419   1_556  A
C642        C647   1.449       .  S
C643        C644   1.407       .  A
C643        C650   1.446       .  S
C644        C645   1.410       .  A
C645        C646   1.412       .  A
C645        C648   1.449       .  S
C646        C649   1.448       .  S
C647        N654   1.157       .  T
C648        N653   1.157       .  T
C649        N651   1.156       .  T
C650        N652   1.157       .  T
C655        C656   1.404       .  A
C655        C660   1.408       .  A
C656        C657   1.399   1_554  A
C656        C661   1.448       .  S
C657        C658   1.409       .  A
C657        C664   1.446       .  S
C658        C659   1.412       .  A
C659        C660   1.413   1_556  A
C659        C662   1.444       .  S
C660        C663   1.448       .  S
C661        N668   1.156       .  T
C662        N667   1.156       .  T
C663        N665   1.157       .  T
C664        N666   1.156       .  T
C669        C670   1.413       .  A
C669        C674   1.410       .  A
C670        C671   1.419       .  A
C670        C675   1.451       .  S
C671        C672   1.419       .  A
C671        C678   1.449       .  S
C672        C673   1.414       .  A
C673        C674   1.410       .  A
C673        C676   1.451       .  S
C674        C677   1.447       .  S
C675        N682   1.157       .  T
C676        N681   1.157       .  T
C677        N679   1.156       .  T
C678        N680   1.157       .  T
C683        C684   1.406       .  A
C683        C688   1.412       .  A
C684        C685   1.402       .  A
C684        C689   1.449       .  S
C685        C686   1.412       .  A
C685        C692   1.449       .  S
C686        C687   1.415       .  A
C687        C688   1.422       .  A
C687        C690   1.448       .  S
C688        C691   1.449       .  S
C689        N696   1.155       .  T
C690        N695   1.157       .  T
C691        N693   1.157       .  T
C692        N694   1.156       .  T
C697        C698   1.413       .  A
C697        C702   1.412       .  A
C698        C699   1.408   1_455  A
C698        C703   1.451       .  S
C699        C700   1.410       .  A
C699        C706   1.450       .  S
C700        C701   1.414       .  A
C701        C702   1.420   1_655  A
C701        C704   1.449       .  S
C702        C705   1.449       .  S
C703        N710   1.156       .  T
C704        N709   1.157       .  T
C705        N707   1.157       .  T
C706        N708   1.156       .  T
C711        C712   1.413       .  A
C711        C716   1.414       .  A
C712        C713   1.421   1_545  A
C712        C717   1.448       .  S
C713        C714   1.413       .  A
C713        C720   1.448       .  S
C714        C715   1.415       .  A
C715        C716   1.396   1_565  A
C715        C718   1.456       .  S
C716        C719   1.457       .  S
C717        N724   1.157       .  T
C718        N723   1.158       .  T
C719        N721   1.158       .  T
C720        N722   1.157       .  T
C725        C726   1.404       .  A
C725        C730   1.408       .  A
C726        C727   1.406       .  A
C726        C731   1.455       .  S
C727        C728   1.429       .  A
C727        C734   1.451       .  S
C728        C729   1.426       .  A
C729        C730   1.418       .  A
C729        C732   1.450       .  S
C730        C733   1.451       .  S
C731        N738   1.157       .  T
C732        N737   1.157       .  T
C733        N735   1.157       .  T
C734        N736   1.157       .  T
C739        C740   1.407       .  A
C739        C744   1.410       .  A
C740        C741   1.409   1_655  A
C740        C745   1.449       .  S
C741        C742   1.412       .  A
C741        C748   1.449       .  S
C742        C743   1.412       .  A
C743        C744   1.415   1_455  A
C743        C746   1.448       .  S
C744        C747   1.448       .  S
C745        N752   1.157       .  T
C746        N751   1.157       .  T
C747        N749   1.157       .  T
C748        N750   1.157       .  T
C753        C754   1.404       .  A
C753        C758   1.403       .  A
C754        C755   1.412       .  A
C754        C759   1.452       .  S
C755        C756   1.422   1_556  A
C755        C762   1.445       .  S
C756        C757   1.426       .  A
C757        C758   1.418   1_554  A
C757        C760   1.450       .  S
C758        C761   1.446   1_556  S
C759        N766   1.157       .  T
C760        N765   1.158       .  T
C761        N763   1.157       .  T
C762        N764   1.155       .  T
C767        C768   1.413       .  A
C767        C772   1.407       .  A
C768        C769   1.412   1_565  A
C768        C773   1.450       .  S
C769        C770   1.411       .  A
C769        C776   1.450       .  S
C770        C771   1.413       .  A
C771        C772   1.415   1_545  A
C771        C774   1.445       .  S
C772        C775   1.447       .  S
C773        N780   1.157       .  T
C774        N779   1.156       .  T
C775        N777   1.156       .  T
C776        N778   1.157       .  T
C781        C782   1.424       .  A
C781        C786   1.434   1_556  A
C782        C783   1.418   1_556  A
C782        C787   1.448       .  S
C783        C784   1.404       .  A
C783        C790   1.448       .  S
C784        C785   1.392       .  A
C785        C786   1.395       .  A
C785        C788   1.445       .  S
C786        C789   1.456       .  S
C787        N794   1.157       .  T
C788        N793   1.154       .  T
C789        N791   1.158       .  T
C790        N792   1.157       .  T
C795        C796   1.411       .  A
C795        C800   1.410   1_556  A
C796        C797   1.414       .  A
C796        C801   1.449       .  S
C797        C798   1.407   1_556  A
C797        C804   1.444   1_556  S
C798        C799   1.410       .  A
C799        C800   1.412       .  A
C799        C802   1.448       .  S
C800        C803   1.448       .  S
C801        N808   1.157       .  T
C802        N807   1.156       .  T
C803        N805   1.157       .  T
C804        N806   1.157       .  T
C809        C810   1.417       .  A
C809        C814   1.412       .  A
C810        C811   1.402       .  A
C810        C815   1.450       .  S
C811        C812   1.408       .  A
C811        C818   1.454       .  S
C812        C813   1.414       .  A
C813        C814   1.419       .  A
C813        C816   1.449       .  S
C814        C817   1.448       .  S
C815        N822   1.157       .  T
C816        N821   1.157       .  T
C817        N819   1.157       .  T
C818        N820   1.156       .  T
C823        C824   1.413       .  A
C823        C828   1.415       .  A
C824        C825   1.415       .  A
C824        C829   1.446       .  S
C825        C826   1.408       .  A
C825        C832   1.449       .  S
C826        C827   1.410       .  A
C827        C828   1.412       .  A
C827        C830   1.450       .  S
C828        C831   1.451       .  S
C829        N836   1.156       .  T
C830        N835   1.157       .  T
C831        N833   1.157       .  T
C832        N834   1.157       .  T
C837        C838   1.404   1_554  A
C837        C842   1.412       .  A
C838        C839   1.405       .  A
C838        C843   1.448       .  S
C839        C840   1.414       .  A
C839        C846   1.444       .  S
C840        C841   1.417       .  A
C841        C842   1.425   1_556  A
C841        C844   1.445       .  S
C842        C845   1.447       .  S
C843        N850   1.155       .  T
C844        N849   1.156       .  T
C845        N847   1.157       .  T
C846        N848   1.155       .  T
C851        C852   1.426       .  A
C851        C856   1.425       .  A
C852        C853   1.423       .  A
C852        C857   1.450       .  S
C853        C854   1.414       .  A
C853        C860   1.450       .  S
C854        C855   1.415       .  A
C855        C856   1.404       .  A
C855        C858   1.452       .  S
C856        C859   1.458       .  S
C857        N864   1.158       .  T
C858        N863   1.156       .  T
C859        N861   1.158       .  T
C860        N862   1.157       .  T
C865        C866   1.407       .  A
C865        C870   1.411       .  A
C866        C867   1.412       .  A
C866        C871   1.447       .  S
C867        C868   1.415       .  A
C867        C874   1.451       .  S
C868        C869   1.420       .  A
C869        C870   1.422       .  A
C869        C872   1.449       .  S
C870        C873   1.449       .  S
C871        N878   1.157       .  T
C872        N877   1.157       .  T
C873        N875   1.157       .  T
C874        N876   1.157       .  T
C879        C880   1.407       .  A
C879        C884   1.409       .  A
C880        C881   1.407       .  A
C880        C885   1.449       .  S
C881        C882   1.411       .  A
C881        C888   1.451       .  S
C882        C883   1.410       .  A
C883        C884   1.412       .  A
C883        C886   1.448       .  S
C884        C887   1.448       .  S
C885        N892   1.157       .  T
C886        N891   1.157       .  T
C887        N889   1.156       .  T
C888        N890   1.157       .  T
C893        C894   1.411       .  A
C893        C898   1.411   1_554  A
C894        C895   1.418       .  A
C894        C899   1.452       .  S
C895        C896   1.421   1_554  A
C895        C902   1.447       .  S
C896        C897   1.421       .  A
C897        C898   1.417       .  A
C897        C900   1.450       .  S
C898        C901   1.446       .  S
C899        N906   1.157       .  T
C900        N905   1.157       .  T
C901        N903   1.155       .  T
C902        N904   1.156       .  T
C907        C908   1.412       .  A
C907        C912   1.406       .  A
C908        C909   1.411       .  A
C908        C913   1.449       .  S
C909        C910   1.414   1_554  A
C909        C916   1.450       .  S
C910        C911   1.416       .  A
C911        C912   1.413   1_556  A
C911        C914   1.449       .  S
C912        C915   1.446       .  S
C913        N920   1.157       .  T
C914        N919   1.157       .  T
C915        N917   1.157   1_554  T
C916        N918   1.157       .  T
C921        C922   1.428       .  A
C921        C926   1.422       .  A
C922        C923   1.403       .  A
C922        C927   1.455       .  S
C923        C924   1.408       .  A
C923        C930   1.455       .  S
C924        C925   1.407       .  A
C925        C926   1.420       .  A
C925        C928   1.448       .  S
C926        C929   1.447       .  S
C927        N934   1.158       .  T
C928        N933   1.157       .  T
C929        N931   1.157       .  T
C930        N932   1.157       .  T
C935        C936   1.410       .  A
C935        C940   1.412       .  A
C936        C937   1.404       .  A
C936        C941   1.454       .  S
C937        C938   1.417       .  A
C937        C944   1.452       .  S
C938        C939   1.418       .  A
C939        C940   1.418       .  A
C939        C942   1.449       .  S
C940        C943   1.450       .  S
C941        N948   1.157       .  T
C942        N947   1.157       .  T
C943        N945   1.157       .  T
C944        N946   1.156       .  T
C949        C950   1.414       .  A
C949        C954   1.415       .  A
C950        C951   1.416       .  A
C950        C955   1.451       .  S
C951        C952   1.417       .  A
C951        C958   1.451       .  S
C952        C953   1.414       .  A
C953        C954   1.412       .  A
C953        C956   1.451       .  S
C954        C957   1.451       .  S
C955        N962   1.157       .  T
C956        N961   1.157       .  T
C957        N959   1.157       .  T
C958        N960   1.157       .  T
C963        C964   1.413       .  A
C963        C968   1.415       .  A
C964        C965   1.417       .  A
C964        C969   1.452       .  S
C965        C966   1.415       .  A
C965        C972   1.444       .  S
C966        C967   1.414       .  A
C967        C968   1.415       .  A
C967        C970   1.447       .  S
C968        C971   1.449       .  S
C969        N976   1.158       .  T
C970        N975   1.156       .  T
C971        N973   1.156       .  T
C972        N974   1.156       .  T
C977        C978   1.409       .  A
C977        C982   1.415       .  A
C978        C979   1.417       .  A
C978        C983   1.445       .  S
C979        C980   1.411       .  A
C979        C986   1.441       .  S
C980        C981   1.412       .  A
C981        C982   1.419       .  A
C981        C984   1.447       .  S
C982        C985   1.449       .  S
C983        N990   1.155       .  T
C984        N989   1.156       .  T
C985        N987   1.157       .  T
C986        N988   1.154       .  T
C991        C992   1.415       .  A
C991        C996   1.417       .  A
C992        C993   1.419       .  A
C992        C997   1.448       .  S
C993        C994   1.413       .  A
C993       C1000   1.450       .  S
C994        C995   1.416       .  A
C995        C996   1.420       .  A
C995        C998   1.451       .  S
C996        C999   1.450       .  S
C997       N1004   1.157       .  T
C998       N1003   1.157       .  T
C999       N1001   1.157       .  T
C1000      N1002   1.157       .  T
C1005      C1006   1.421       .  A
C1005      C1010   1.432       .  A
C1006      C1007   1.420       .  A
C1006      C1011   1.449       .  S
C1007      C1008   1.409       .  A
C1007      C1014   1.449       .  S
C1008      C1009   1.404       .  A
C1009      C1010   1.405       .  A
C1009      C1012   1.451       .  S
C1010      C1013   1.457       .  S
C1011      N1018   1.157       .  T
C1012      N1017   1.155       .  T
C1013      N1015   1.158       .  T
C1014      N1016   1.157       .  T
C1019      C1020   1.408       .  A
C1019      C1024   1.410       .  A
C1020      C1021   1.402       .  A
C1020      C1025   1.457       .  S
C1021      C1022   1.422       .  A
C1021      C1028   1.449       .  S
C1022      C1023   1.420       .  A
C1023      C1024   1.420       .  A
C1023      C1026   1.449       .  S
C1024      C1027   1.449       .  S
C1025      N1032   1.157       .  T
C1026      N1031   1.157       .  T
C1027      N1029   1.157       .  T
C1028      N1030   1.155       .  T
C1033      C1034   1.413       .  A
C1033      C1038   1.420       .  A
C1034      C1035   1.411       .  A
C1034      C1039   1.446       .  S
C1035      C1036   1.411       .  A
C1035      C1042   1.449       .  S
C1036      C1037   1.408       .  A
C1037      C1038   1.416       .  A
C1037      C1040   1.451       .  S
C1038      C1041   1.446       .  S
C1039      N1046   1.155       .  T
C1040      N1045   1.157       .  T
C1041      N1043   1.156       .  T
C1042      N1044   1.157       .  T
C1047      C1048   1.410       .  A
C1047      C1052   1.405       .  A
C1048      C1049   1.417       .  A
C1048      C1053   1.445       .  S
C1049      C1050   1.410       .  A
C1049      C1056   1.444       .  S
C1050      C1051   1.416       .  A
C1051      C1052   1.407       .  A
C1051      C1054   1.447       .  S
C1052      C1055   1.446       .  S
C1053      N1060   1.156       .  T
C1054      N1059   1.156       .  T
C1055      N1057   1.155       .  T
C1056      N1058   1.156       .  T
C1061      C1062   1.412       .  A
C1061      C1066   1.414       .  A
C1062      C1063   1.406       .  A
C1062      C1067   1.443       .  S
C1063      C1064   1.403       .  A
C1063      C1070   1.449       .  S
C1064      C1065   1.407       .  A
C1065      C1066   1.420       .  A
C1065      C1068   1.444       .  S
C1066      C1069   1.445       .  S
C1067      N1074   1.155       .  T
C1068      N1073   1.157       .  T
C1069      N1071   1.157       .  T
C1070      N1072   1.158       .  T
C1075      C1076   1.419       .  A
C1075      C1080   1.418       .  A
C1076      C1077   1.416       .  A
C1076      C1081   1.452       .  S
C1077      C1078   1.415       .  A
C1077      C1084   1.451       .  S
C1078      C1079   1.414       .  A
C1079      C1080   1.415       .  A
C1079      C1082   1.452       .  S
C1080      C1083   1.451       .  S
C1081      N1088   1.157       .  T
C1082      N1087   1.157       .  T
C1083      N1085   1.157       .  T
C1084      N1086   1.157       .  T
C1089      C1090   1.414       .  A
C1089      C1094   1.413       .  A
C1090      C1091   1.428       .  A
C1090      C1095   1.448       .  S
C1091      C1092   1.420       .  A
C1091      C1098   1.448       .  S
C1092      C1093   1.419       .  A
C1093      C1094   1.404       .  A
C1093      C1096   1.458       .  S
C1094      C1097   1.449       .  S
C1095      N1102   1.157       .  T
C1096      N1101   1.158       .  T
C1097      N1099   1.156       .  T
C1098      N1100   1.157       .  T
C1103      C1104   1.413       .  A
C1103      C1108   1.412       .  A
C1104      C1105   1.398       .  A
C1104      C1109   1.451       .  S
C1105      C1106   1.409       .  A
C1105      C1112   1.454       .  S
C1106      C1107   1.413       .  A
C1107      C1108   1.420       .  A
C1107      C1110   1.449       .  S
C1108      C1111   1.446       .  S
C1109      N1116   1.157       .  T
C1110      N1115   1.157       .  T
C1111      N1113   1.157       .  T
C1112      N1114   1.157       .  T
C1117      C1118   1.410       .  A
C1117      C1122   1.414       .  A
C1118      C1119   1.409       .  A
C1118      C1123   1.452       .  S
C1119      C1120   1.412       .  A
C1119      C1126   1.444       .  S
C1120      C1121   1.414       .  A
C1121      C1122   1.421       .  A
C1121      C1124   1.447       .  S
C1122      C1125   1.447       .  S
C1123      N1130   1.157       .  T
C1124      N1129   1.157       .  T
C1125      N1127   1.157       .  T
C1126      N1128   1.155       .  T
C1131      C1132   1.423       .  A
C1131      C1136   1.421       .  A
C1132      C1133   1.421       .  A
C1132      C1137   1.451       .  S
C1133      C1134   1.415       .  A
C1133      C1140   1.451       .  S
C1134      C1135   1.411       .  A
C1135      C1136   1.419       .  A
C1135      C1138   1.448       .  S
C1136      C1139   1.448       .  S
C1137      N1144   1.157       .  T
C1138      N1143   1.156       .  T
C1139      N1141   1.157       .  T
C1140      N1142   1.157       .  T
C1145      C1146   1.410       .  A
C1145      C1150   1.413       .  A
C1146      C1147   1.414       .  A
C1146      C1151   1.446       .  S
C1147      C1148   1.409       .  A
C1147      C1154   1.443       .  S
C1148      C1149   1.416       .  A
C1149      C1150   1.426       .  A
C1149      C1152   1.447       .  S
C1150      C1153   1.445       .  S
C1151      N1158   1.155       .  T
C1152      N1157   1.157       .  T
C1153      N1155   1.157       .  T
C1154      N1156   1.154       .  T
C1159      C1160   1.419       .  A
C1159      C1164   1.421       .  A
C1160      C1161   1.413       .  A
C1160      C1165   1.446       .  S
C1161      C1162   1.408       .  A
C1161      C1168   1.453       .  S
C1162      C1163   1.409       .  A
C1163      C1164   1.410       .  A
C1163      C1166   1.451       .  S
C1164      C1167   1.450       .  S
C1165      N1172   1.156       .  T
C1166      N1171   1.157       .  T
C1167      N1169   1.157       .  T
C1168      N1170   1.157       .  T
C1173      C1174   1.426       .  A
C1173      C1178   1.419       .  A
C1174      C1175   1.408       .  A
C1174      C1179   1.456       .  S
C1175      C1176   1.417       .  A
C1175      C1182   1.455       .  S
C1176      C1177   1.418       .  A
C1177      C1178   1.423       .  A
C1177      C1180   1.449       .  S
C1178      C1181   1.450       .  S
C1179      N1186   1.158       .  T
C1180      N1185   1.157       .  T
C1181      N1183   1.158       .  T
C1182      N1184   1.157       .  T
C1187      C1188   1.404       .  A
C1187      C1192   1.409       .  A
C1188      C1189   1.400       .  A
C1188      C1193   1.447       .  S
C1189      C1190   1.414       .  A
C1189      C1196   1.445       .  S
C1190      C1191   1.423       .  A
C1191      C1192   1.422       .  A
C1191      C1194   1.449       .  S
C1192      C1195   1.446       .  S
C1193      N1200   1.156       .  T
C1194      N1199   1.157       .  T
C1195      N1197   1.157       .  T
C1196      N1198   1.156       .  T
C1201      C1202   1.409       .  A
C1201      C1206   1.410       .  A
C1202      C1203   1.402       .  A
C1202      C1207   1.449       .  S
C1203      C1204   1.418       .  A
C1203      C1210   1.455       .  S
C1204      C1205   1.420       .  A
C1205      C1206   1.411       .  A
C1205      C1208   1.452       .  S
C1206      C1209   1.452       .  S
C1207      N1214   1.155       .  T
C1208      N1213   1.157       .  T
C1209      N1211   1.158       .  T
C1210      N1212   1.157       .  T
C1215      C1216   1.405       .  A
C1215      C1220   1.416       .  A
C1216      C1217   1.408       .  A
C1216      C1221   1.450       .  S
C1217      C1218   1.412       .  A
C1217      C1224   1.444       .  S
C1218      C1219   1.410       .  A
C1219      C1220   1.415       .  A
C1219      C1222   1.450       .  S
C1220      C1223   1.450       .  S
C1221      N1228   1.157       .  T
C1222      N1227   1.157       .  T
C1223      N1225   1.157       .  T
C1224      N1226   1.154       .  T
C1229      C1230   1.412       .  A
C1229      C1234   1.419       .  A
C1230      C1231   1.416       .  A
C1230      C1235   1.446       .  S
C1231      C1232   1.415       .  A
C1231      C1238   1.446       .  S
C1232      C1233   1.405       .  A
C1233      C1234   1.411       .  A
C1233      C1236   1.450       .  S
C1234      C1237   1.442       .  S
C1235      N1242   1.156       .  T
C1236      N1241   1.157       .  T
C1237      N1239   1.155       .  T
C1238      N1240   1.157       .  T
C1243      C1244   1.409       .  A
C1243      C1248   1.414       .  A
C1244      C1245   1.410   1_565  A
C1244      C1249   1.447       .  S
C1245      C1246   1.407       .  A
C1245      C1252   1.441       .  S
C1246      C1247   1.411       .  A
C1247      C1248   1.422   1_545  A
C1247      C1250   1.446       .  S
C1248      C1251   1.447       .  S
C1249      N1256   1.156       .  T
C1250      N1255   1.157       .  T
C1251      N1253   1.157       .  T
C1252      N1254   1.155       .  T
C1257      C1258   1.408       .  A
C1257      C1262   1.407       .  A
C1258      C1259   1.418       .  A
C1258      C1263   1.447       .  S
C1259      C1260   1.422       .  A
C1259      C1266   1.450       .  S
C1260      C1261   1.410       .  A
C1261      C1262   1.411       .  A
C1261      C1264   1.447       .  S
C1262      C1265   1.442       .  S
C1263      N1270   1.156       .  T
C1264      N1269   1.156       .  T
C1265      N1267   1.153       .  T
C1266      N1268   1.157       .  T
C1271      C1272   1.418       .  A
C1271      C1276   1.422       .  A
C1272      C1273   1.423       .  A
C1272      C1277   1.452       .  S
C1273      C1274   1.425       .  A
C1273      C1280   1.451       .  S
C1274      C1275   1.424       .  A
C1275      C1276   1.418       .  A
C1275      C1278   1.453       .  S
C1276      C1279   1.453       .  S
C1277      N1284   1.157       .  T
C1278      N1283   1.157       .  T
C1279      N1281   1.158       .  T
C1280      N1282   1.158       .  T
C1285      C1286   1.412       .  A
C1285      C1290   1.418       .  A
C1286      C1287   1.398   1_655  A
C1286      C1291   1.453       .  S
C1287      C1288   1.414       .  A
C1287      C1294   1.452       .  S
C1288      C1289   1.418       .  A
C1289      C1290   1.432   1_455  A
C1289      C1292   1.446       .  S
C1290      C1293   1.447       .  S
C1291      N1298   1.158       .  T
C1292      N1297   1.157       .  T
C1293      N1295   1.157       .  T
C1294      N1296   1.156       .  T
C1299      C1300   1.418       .  A
C1299      C1304   1.419       .  A
C1300      C1301   1.406       .  A
C1300      C1305   1.452       .  S
C1301      C1302   1.424       .  A
C1301      C1308   1.455       .  S
C1302      C1303   1.422       .  A
C1303      C1304   1.414       .  A
C1303      C1306   1.454       .  S
C1304      C1307   1.452       .  S
C1305      N1312   1.155       .  T
C1306      N1311   1.157       .  T
C1307      N1309   1.158       .  T
C1308      N1310   1.158       .  T
C1313      C1314   1.410       .  A
C1313      C1318   1.416       .  A
C1314      C1315   1.413       .  A
C1314      C1319   1.447       .  S
C1315      C1316   1.412       .  A
C1315      C1322   1.449       .  S
C1316      C1317   1.410       .  A
C1317      C1318   1.422       .  A
C1317      C1320   1.445       .  S
C1318      C1321   1.450       .  S
C1319      N1326   1.156       .  T
C1320      N1325   1.157       .  T
C1321      N1323   1.157       .  T
C1322      N1324   1.157       .  T
C1327      C1328   1.411       .  A
C1327      C1332   1.413       .  A
C1328      C1329   1.417       .  A
C1328      C1333   1.452       .  S
C1329      C1330   1.425       .  A
C1329      C1336   1.451       .  S
C1330      C1331   1.427       .  A
C1331      C1332   1.408       .  A
C1331      C1334   1.455       .  S
C1332      C1335   1.456       .  S
C1333      N1340   1.158       .  T
C1334      N1339   1.158       .  T
C1335      N1337   1.157       .  T
C1336      N1338   1.157       .  T
C1341      C1342   1.413       .  A
C1341      C1346   1.412       .  A
C1342      C1343   1.408   1_565  A
C1342      C1347   1.450       .  S
C1343      C1344   1.409       .  A
C1343      C1350   1.451       .  S
C1344      C1345   1.411       .  A
C1345      C1346   1.418   1_545  A
C1345      C1348   1.446       .  S
C1346      C1349   1.447       .  S
C1347      N1354   1.157       .  T
C1348      N1353   1.156       .  T
C1349      N1351   1.157       .  T
C1350      N1352   1.157       .  T
C1355      C1356   1.416       .  A
C1355      C1360   1.419       .  A
C1356      C1357   1.398       .  A
C1356      C1361   1.453       .  S
C1357      C1358   1.413       .  A
C1357      C1364   1.450       .  S
C1358      C1359   1.417       .  A
C1359      C1360   1.426       .  A
C1359      C1362   1.447       .  S
C1360      C1363   1.447       .  S
C1361      N1368   1.157       .  T
C1362      N1367   1.157       .  T
C1363      N1365   1.157       .  T
C1364      N1366   1.155       .  T
C1369      C1370   1.411       .  A
C1369      C1374   1.402       .  A
C1370      C1371   1.419       .  A
C1370      C1375   1.445       .  S
C1371      C1372   1.411       .  A
C1371      C1378   1.446       .  S
C1372      C1373   1.418       .  A
C1373      C1374   1.404       .  A
C1373      C1376   1.447       .  S
C1374      C1377   1.451       .  S
C1375      N1382   1.156       .  T
C1376      N1381   1.155       .  T
C1377      N1379   1.157       .  T
C1378      N1380   1.157       .  T
C1383      C1384   1.421       .  A
C1383      C1388   1.417       .  A
C1384      C1385   1.418       .  A
C1384      C1389   1.453       .  S
C1385      C1386   1.421       .  A
C1385      C1392   1.452       .  S
C1386      C1387   1.425       .  A
C1387      C1388   1.416       .  A
C1387      C1390   1.453       .  S
C1388      C1391   1.452       .  S
C1389      N1396   1.157       .  T
C1390      N1395   1.158       .  T
C1391      N1393   1.157       .  T
C1392      N1394   1.158       .  T
C1397      C1398   1.415       .  A
C1397      C1402   1.407       .  A
C1398      C1399   1.424   1_455  A
C1398      C1403   1.449       .  S
C1399      C1400   1.419       .  A
C1399      C1406   1.449       .  S
C1400      C1401   1.415       .  A
C1401      C1402   1.406   1_655  A
C1401      C1404   1.450       .  S
C1402      C1405   1.446       .  S
C1403      N1410   1.157       .  T
C1404      N1409   1.156       .  T
C1405      N1407   1.154       .  T
C1406      N1408   1.158       .  T
C1411      C1412   1.413       .  A
C1411      C1416   1.416       .  A
C1412      C1413   1.425       .  A
C1412      C1417   1.445       .  S
C1413      C1414   1.414       .  A
C1413      C1420   1.449       .  S
C1414      C1415   1.404       .  A
C1415      C1416   1.404       .  A
C1415      C1418   1.449       .  S
C1416      C1419   1.447       .  S
C1417      N1424   1.157       .  T
C1418      N1423   1.156       .  T
C1419      N1421   1.156       .  T
C1420      N1422   1.157       .  T
C1425      C1426   1.421       .  A
C1425      C1430   1.422       .  A
C1426      C1427   1.402       .  A
C1426      C1431   1.458       .  S
C1427      C1428   1.417       .  A
C1427      C1434   1.452       .  S
C1428      C1429   1.417       .  A
C1429      C1430   1.431       .  A
C1429      C1432   1.448       .  S
C1430      C1433   1.448       .  S
C1431      N1438   1.158       .  T
C1432      N1437   1.157       .  T
C1433      N1435   1.157       .  T
C1434      N1436   1.155       .  T
C1439      C1440   1.427       .  A
C1439      C1444   1.423       .  A
C1440      C1441   1.409       .  A
C1440      C1445   1.456       .  S
C1441      C1442   1.422       .  A
C1441      C1448   1.457       .  S
C1442      C1443   1.413       .  A
C1443      C1444   1.418       .  A
C1443      C1446   1.451       .  S
C1444      C1447   1.450       .  S
C1445      N1452   1.158       .  T
C1446      N1451   1.157       .  T
C1447      N1449   1.157       .  T
C1448      N1450   1.158       .  T
C1453      C1454   1.415       .  A
C1453      C1458   1.421       .  A
C1454      C1455   1.413       .  A
C1454      C1459   1.455       .  S
C1455      C1456   1.426       .  A
C1455      C1462   1.452       .  S
C1456      C1457   1.422       .  A
C1457      C1458   1.413       .  A
C1457      C1460   1.455       .  S
C1458      C1461   1.453       .  S
C1459      N1466   1.157       .  T
C1460      N1465   1.157       .  T
C1461      N1463   1.159       .  T
C1462      N1464   1.159       .  T
C1467      C1468   1.409       .  A
C1467      C1472   1.413       .  A
C1468      C1469   1.414       .  A
C1468      C1473   1.451       .  S
C1469      C1470   1.412       .  A
C1469      C1476   1.445       .  S
C1470      C1471   1.413       .  A
C1471      C1472   1.417       .  A
C1471      C1474   1.451       .  S
C1472      C1475   1.450       .  S
C1473      N1480   1.157       .  T
C1474      N1479   1.157       .  T
C1475      N1477   1.157       .  T
C1476      N1478   1.155       .  T
C1481      C1482   1.412       .  A
C1481      C1486   1.416       .  A
C1482      C1483   1.401       .  A
C1482      C1487   1.444       .  S
C1483      C1484   1.409       .  A
C1483      C1490   1.451       .  S
C1484      C1485   1.419       .  A
C1485      C1486   1.429       .  A
C1485      C1488   1.447       .  S
C1486      C1489   1.446       .  S
C1487      N1494   1.154       .  T
C1488      N1493   1.157       .  T
C1489      N1491   1.157       .  T
C1490      N1492   1.157       .  T
C1495      C1496   1.418       .  A
C1495      C1500   1.418       .  A
C1496      C1497   1.418       .  A
C1496      C1501   1.449       .  S
C1497      C1498   1.412       .  A
C1497      C1504   1.447       .  S
C1498      C1499   1.410       .  A
C1499      C1500   1.397       .  A
C1499      C1502   1.456       .  S
C1500      C1503   1.453       .  S
C1501      N1508   1.158       .  T
C1502      N1507   1.157       .  T
C1503      N1505   1.157       .  T
C1504      N1506   1.157       .  T
C1509      C1510   1.416       .  A
C1509      C1514   1.423       .  A
C1510      C1511   1.417       .  A
C1510      C1515   1.445       .  S
C1511      C1512   1.412       .  A
C1511      C1518   1.451       .  S
C1512      C1513   1.406       .  A
C1513      C1514   1.413       .  A
C1513      C1516   1.450       .  S
C1514      C1517   1.448       .  S
C1515      N1522   1.156       .  T
C1516      N1521   1.157       .  T
C1517      N1519   1.156       .  T
C1518      N1520   1.157       .  T
C1523      C1524   1.413       .  A
C1523      C1528   1.409       .  A
C1524      C1525   1.416       .  A
C1524      C1529   1.450       .  S
C1525      C1526   1.411       .  A
C1525      C1532   1.447       .  S
C1526      C1527   1.411       .  A
C1527      C1528   1.412       .  A
C1527      C1530   1.450       .  S
C1528      C1531   1.446       .  S
C1529      N1536   1.157       .  T
C1530      N1535   1.157       .  T
C1531      N1533   1.156       .  T
C1532      N1534   1.156       .  T
