geometry optimzed in LAMMPS
_audit_creation_date              2020-12-01 
_audit_creation_method            'lammps2cif' 
_symmetry_space_group_name_H-M    'P1' 
_symmetry_Int_Tables_number       1 
_symmetry_cell_setting            triclinic 
loop_ 
_symmetry_equiv_pos_as_xyz 
  x,y,z 
_cell_length_a                    38.98299495 
_cell_length_b                    38.56659183535293 
_cell_length_c                    43.190447516137795 
_cell_angle_alpha                 90.00481655048775 
_cell_angle_beta                  90.28613568227473 
_cell_angle_gamma                 89.9239474080715 
loop_ 
_atom_site_label 
_atom_site_type_symbol 
_atom_site_fract_x 
_atom_site_fract_y 
_atom_site_fract_z 
_atom_site_charge 
O1          O  0.10867570  0.37122512  0.47985421    -0.82900
C2          C  0.13746659  0.32584066  0.35975302     0.96400
O3          O  0.16042772  0.33261834  0.37978368    -0.72100
O4          O  0.15256409  0.39425021  0.40250430    -0.75600
Al5        Al  0.15667229  0.35050812  0.42146990     1.49000
C6          C  0.13567960  0.41975735  0.41207609     0.91700
O7          O  0.05863172  0.38337839  0.40597569    -0.81900
O8          O  0.07456926  0.29185185  0.44653719    -0.75400
Al9        Al  0.08524267  0.37568605  0.44221810     1.90100
O10         O  0.04993828  0.32849754  0.39627119    -0.74500
O11         O  0.13046230  0.27555145  0.41452436    -0.74300
O12         O  0.10773125  0.31750899  0.36804343    -0.80000
O13         O  0.16723434  0.30739612  0.43978529    -0.78200
O14         O  0.11161465  0.34418802  0.42387776    -1.14300
O15         O  0.16140365  0.37011000  0.46267739    -0.73500
C16         C  0.14036333  0.37357939  0.48481445     0.97200
C17         C  0.04109230  0.35986290  0.39323742     0.93600
Al18       Al  0.09235989  0.30635934  0.40771629     1.55600
O19         O  0.11154687  0.41572358  0.43100005    -0.78200
C20         C  0.15786678  0.27821978  0.43002353     0.97700
C21         C  0.05449620  0.31046117  0.46225384     0.92600
O22         O  0.05296605  0.34292197  0.45831883    -0.83500
O23         O  0.31895695  0.07526180  0.38783289    -0.82900
C24         C  0.35448807  0.16718993  0.48578632     0.96400
O25         O  0.36957797  0.13944862  0.47842458    -0.72100
O26         O  0.32492310  0.08907323  0.47583605    -0.75600
Al27       Al  0.35909911  0.10447761  0.44854595     1.49000
C28         C  0.29710400  0.07439015  0.46861340     0.91700
O29         O  0.26048012  0.14107916  0.42586835    -0.81900
O30         O  0.33971263  0.17240874  0.38043714    -0.75400
Al31       Al  0.29299701  0.10978238  0.40836380     1.90100
O32         O  0.29022104  0.18881084  0.42181552    -0.74500
O33         O  0.38596705  0.17288823  0.42401297    -0.74300
O34         O  0.33440560  0.18199804  0.46702481    -0.80000
O35         O  0.39648449  0.11718946  0.42271838    -0.78200
O36         O  0.32931992  0.12963599  0.42677912    -1.14300
O37         O  0.35569565  0.06357086  0.42472372    -0.73500
C38         C  0.34101959  0.05559759  0.39981042     0.97200
C39         C  0.26217723  0.17365683  0.42614697     0.93600
Al40       Al  0.33672191  0.17514997  0.42354763     1.55600
O41         O  0.28338822  0.07873998  0.44223572    -0.78200
C42         C  0.40595560  0.14799163  0.41808992     0.97700
C43         C  0.32022030  0.15697953  0.36163811     0.92600
O44         O  0.29723787  0.13620647  0.37079296    -0.83500
O45         O  0.11705760  0.67422338  0.03976373    -0.82900
C46         C  0.14187667  0.71824383  0.16047798     0.96400
O47         O  0.16521134  0.71082074  0.14131898    -0.72100
O48         O  0.15673589  0.64882026  0.11940004    -0.75600
Al49       Al  0.16272404  0.69248914  0.10012183     1.49000
C50         C  0.14054363  0.62355434  0.10829425     0.91700
O51         O  0.06585152  0.66000785  0.11118621    -0.81900
O52         O  0.08069085  0.75195247  0.07163820    -0.75400
Al53       Al  0.09257346  0.66841011  0.07601860     1.90100
O54         O  0.05523701  0.71451250  0.12163696    -0.74500
O55         O  0.13653468  0.76816786  0.10461014    -0.74300
O56         O  0.11246142  0.72680428  0.15123377    -0.80000
O57         O  0.17451313  0.73513460  0.08212290    -0.78200
O58         O  0.11795353  0.69962800  0.09563563    -1.14300
O59         O  0.16911098  0.67268480  0.05926059    -0.73500
C60         C  0.14898945  0.67146648  0.03615069     0.97200
C61         C  0.04749541  0.68259997  0.12396887     0.93600
Al62       Al  0.09799469  0.73745994  0.11101020     1.55600
O63         O  0.11868176  0.62812820  0.08716131    -0.78200
C64         C  0.16473546  0.76470169  0.09051569     0.97700
C65         C  0.06058860  0.73321771  0.05595656     0.92600
O66         O  0.06000448  0.70074435  0.05958355    -0.83500
O67         O  0.32915879  0.96587252  0.13177182    -0.82900
C68         C  0.36277021  0.87051222  0.03631594     0.96400
O69         O  0.37612843  0.89968006  0.04163228    -0.72100
O70         O  0.32877461  0.94881236  0.04275751    -0.75600
Al71       Al  0.36510471  0.93612866  0.06998534     1.49000
C72         C  0.30220982  0.96495407  0.05131078     0.91700
O73         O  0.26888266  0.90009278  0.09545436    -0.81900
O74         O  0.34863965  0.87112041  0.14276169    -0.75400
Al75       Al  0.30151558  0.93167697  0.11235761     1.90100
O76         O  0.29901630  0.85239829  0.10074522    -0.74500
O77         O  0.39477654  0.87031683  0.09932507    -0.74300
O78         O  0.34389350  0.85633070  0.05622027    -0.80000
O79         O  0.40387585  0.92628776  0.09543207    -0.78200
O80         O  0.33723344  0.91134305  0.09386664    -1.14300
O81         O  0.36129319  0.97861755  0.09213567    -0.73500
C82         C  0.34972374  0.98603349  0.11843562     0.97200
C83         C  0.27083064  0.86746471  0.09571619     0.93600
Al84       Al  0.34571259  0.86632727  0.09934813     1.55600
O85         O  0.29105807  0.96216738  0.07861947    -0.78200
C86         C  0.41413466  0.89631602  0.10260619     0.97700
C87         C  0.32841315  0.88656212  0.16079871     0.92600
O88         O  0.30522066  0.90625111  0.15033390    -0.83500
O89         O  0.69324616  0.08055795  0.13457279    -0.82900
C90         C  0.66041221  0.17262853  0.03610173     0.96400
O91         O  0.64614299  0.14441407  0.04317811    -0.72100
O92         O  0.69179543  0.09496708  0.04545258    -0.75600
Al93       Al  0.65668634  0.10910665  0.07235140     1.49000
C94         C  0.71857229  0.07900304  0.05369192     0.91700
O95         O  0.75430119  0.14406214  0.09681562    -0.81900
O96         O  0.67514726  0.17681232  0.14179405    -0.75400
Al97       Al  0.72101746  0.11377946  0.11418836     1.90100
O98         O  0.72536317  0.19267843  0.10005067    -0.74500
O99         O  0.62872380  0.17689544  0.09824200    -0.74300
O100        O  0.68011431  0.18740811  0.05513491    -0.80000
O101        O  0.61893598  0.12087153  0.09752006    -0.78200
O102        O  0.68556569  0.13419027  0.09504356    -1.14300
O103        O  0.65985344  0.06737351  0.09563246    -0.73500
C104        C  0.67207721  0.06042717  0.12187934     0.97200
C105        C  0.75324884  0.17668803  0.09631820     0.93600
Al106      Al  0.67818882  0.17967826  0.09857411     1.55600
O107        O  0.73066576  0.08204703  0.08083242    -0.78200
C108        C  0.60886859  0.15141095  0.10243593     0.97700
C109        C  0.69444854  0.16138684  0.16079812     0.92600
O110        O  0.71742555  0.14074557  0.15149741    -0.83500
O111        O  0.90514850  0.36938256  0.03786518    -0.82900
C112        C  0.87988687  0.32836297  0.15983209     0.96400
O113        O  0.85711598  0.33445758  0.13965710    -0.72100
O114        O  0.86465273  0.39597022  0.11603876    -0.75600
Al115      Al  0.85991222  0.35131762  0.09816967     1.49000
C116        C  0.88133649  0.42104594  0.10517193     0.91700
O117        O  0.95859699  0.38529900  0.10959561    -0.81900
O118        O  0.94241110  0.29177076  0.07379613    -0.75400
Al119      Al  0.93034270  0.37571954  0.07458349     1.90100
O120        O  0.96773213  0.33114681  0.12216678    -0.74500
O121        O  0.88704775  0.27701015  0.10724520    -0.74300
O122        O  0.91020179  0.32117802  0.15199201    -0.80000
O123        O  0.84933446  0.30729356  0.08108326    -0.78200
O124        O  0.90500015  0.34507948  0.09495394    -1.14300
O125        O  0.85339147  0.36982434  0.05721370    -0.73500
C126        C  0.87312556  0.37202204  0.03421341     0.97200
C127        C  0.97614280  0.36276462  0.12379688     0.93600
Al128      Al  0.92509980  0.30824253  0.11230983     1.55600
O129        O  0.90435018  0.41611156  0.08529933    -0.78200
C130        C  0.85940988  0.27870983  0.09194064     0.97700
C131        C  0.96146935  0.30987120  0.05667947     0.92600
O132        O  0.96203090  0.34251802  0.05881357    -0.83500
O133        O  0.90633147  0.67616679  0.47831429    -0.82900
C134        C  0.88440037  0.72139451  0.35599146     0.96400
O135        O  0.86076465  0.71521887  0.37521539    -0.72100
O136        O  0.86633990  0.65323100  0.39839873    -0.75600
Al137      Al  0.86226557  0.69766202  0.41691330     1.49000
C138        C  0.88234477  0.62753487  0.40908663     0.91700
O139        O  0.95925212  0.66166341  0.40700977    -0.81900
O140        O  0.94612254  0.75417582  0.44511348    -0.75400
Al141      Al  0.93155707  0.67076715  0.44176441     1.90100
O142        O  0.97062361  0.71560463  0.39563131    -0.74500
O143        O  0.89135840  0.77233129  0.41159179    -0.74300
O144        O  0.91402949  0.72908280  0.36536397    -0.80000
O145        O  0.85217241  0.74125164  0.43434133    -0.78200
O146        O  0.90730336  0.70286090  0.42164268    -1.14300
O147        O  0.85464662  0.67878779  0.45785592    -0.73500
C148        C  0.87423512  0.67449017  0.48104786     0.97200
C149        C  0.97761128  0.68357308  0.39335980     0.93600
Al150      Al  0.92864642  0.73982282  0.40579859     1.55600
O151        O  0.90487002  0.63145275  0.42972286    -0.78200
C152        C  0.86313803  0.77037279  0.42572308     0.97700
C153        C  0.96412017  0.73488457  0.46232978     0.92600
O154        O  0.96398742  0.70236361  0.45907289    -0.83500
O155        O  0.69660244  0.97009459  0.38818601    -0.82900
C156        C  0.66241937  0.87629505  0.48538961     0.96400
O157        O  0.64721294  0.90405331  0.47811751    -0.72100
O158        O  0.68892565  0.95701444  0.47537279    -0.75600
Al159      Al  0.65588102  0.93902501  0.44774809     1.49000
C160        C  0.71702303  0.97143770  0.46897621     0.91700
O161        O  0.75709498  0.90557664  0.42775144    -0.81900
O162        O  0.68031695  0.87192038  0.37978377    -0.75400
Al163      Al  0.72350583  0.93600442  0.40941236     1.90100
O164        O  0.72886660  0.85707572  0.42311745    -0.74500
O165        O  0.63284694  0.86904322  0.42199479    -0.74300
O166        O  0.68273516  0.86191856  0.46671570    -0.80000
O167        O  0.61884337  0.92385212  0.42219769    -0.78200
O168        O  0.68727655  0.91488541  0.42677583    -1.14300
O169        O  0.65714845  0.97973100  0.42281664    -0.73500
C170        C  0.67266207  0.98862168  0.39862988     0.97200
C171        C  0.75641125  0.87289714  0.42828122     0.93600
Al172      Al  0.68185543  0.86907158  0.42317510     1.55600
O173        O  0.73144319  0.96693986  0.44317979    -0.78200
C174        C  0.61113985  0.89262496  0.41705904     0.97700
C175        C  0.69982347  0.88819406  0.36165594     0.92600
O176        O  0.72159305  0.90961867  0.37188536    -0.83500
O177        O  0.39994338  0.17316401  0.23569680    -0.82900
C178        C  0.37841402  0.21038421  0.11139737     0.96400
O179        O  0.35491067  0.20628917  0.13106228    -0.72100
O180        O  0.36129295  0.14602243  0.15712754    -0.75600
Al181      Al  0.35680708  0.19104959  0.17325973     1.49000
C182        C  0.37881915  0.12138735  0.16780462     0.91700
O183        O  0.45738154  0.15743261  0.16709630    -0.81900
O184        O  0.43910247  0.25168273  0.19764088    -0.75400
Al185      Al  0.42686412  0.16727937  0.19993303     1.90100
O186        O  0.46517549  0.21073866  0.15164540    -0.74500
O187        O  0.38408689  0.26492347  0.16282610    -0.74300
O188        O  0.40839067  0.21819301  0.11998085    -0.80000
O189        O  0.34635277  0.23537458  0.18895413    -0.78200
O190        O  0.40198354  0.19715581  0.17773852    -1.14300
O191        O  0.34888690  0.17404759  0.21409890    -0.73500
C192        C  0.36782873  0.17166521  0.23769613     0.97200
C193        C  0.47507426  0.17960939  0.15305015     0.93600
Al194      Al  0.42230702  0.23335401  0.15954534     1.55600
O195        O  0.40237150  0.12657805  0.18739101    -0.78200
C196        C  0.35661326  0.26377369  0.17818540     0.97700
C197        C  0.45717427  0.23450619  0.21653260     0.92600
O198        O  0.45666212  0.20172926  0.21684594    -0.83500
O199        O  0.19057607  0.46775875  0.14162065    -0.82900
C200        C  0.16734146  0.36878409  0.23653537     0.96400
O201        O  0.15273290  0.39769094  0.23277325    -0.72100
O202        O  0.19925796  0.44699414  0.23014031    -0.75600
Al203      Al  0.16088398  0.43533391  0.20514364     1.49000
C204        C  0.22450875  0.46422647  0.22035284     0.91700
O205        O  0.25470052  0.40129839  0.17198210    -0.81900
O206        O  0.17038696  0.37369008  0.13051847    -0.75400
Al207      Al  0.22036421  0.43304383  0.15811678     1.90100
O208        O  0.22474033  0.35354859  0.16690519    -0.74500
O209        O  0.12924040  0.37028345  0.17722553    -0.74300
O210        O  0.18502114  0.35553309  0.21528810    -0.80000
O211        O  0.12009065  0.42608989  0.18218890    -0.78200
O212        O  0.18675574  0.41177426  0.17871620    -1.14300
O213        O  0.16265657  0.47870335  0.18412028    -0.73500
C214        C  0.17196145  0.48772489  0.15748128     0.97200
C215        C  0.25298583  0.36868228  0.17124132     0.93600
Al216      Al  0.17828206  0.36694504  0.17283380     1.55600
O217        O  0.23342724  0.46261760  0.19219684    -0.78200
C218        C  0.10936286  0.39618067  0.17535911     0.97700
C219        C  0.18827311  0.38969701  0.11103925     0.92600
O220        O  0.21318608  0.40846494  0.11958963    -0.83500
O221        O  0.82739495  0.47088731  0.37948799    -0.82900
C222        C  0.85106117  0.37467915  0.28202194     0.96400
O223        O  0.86511698  0.40368755  0.28637443    -0.72100
O224        O  0.82018807  0.45427591  0.29082086    -0.75600
Al225      Al  0.85785472  0.44011905  0.31535007     1.49000
C226        C  0.79506850  0.47163126  0.30075528     0.91700
O227        O  0.76232528  0.40609927  0.34697477    -0.81900
O228        O  0.84638145  0.37598373  0.38790532    -0.75400
Al229      Al  0.79735432  0.43713714  0.36169327     1.90100
O230        O  0.79178756  0.35786751  0.35083580    -0.74500
O231        O  0.88714472  0.37315494  0.34094801    -0.74300
O232        O  0.83232822  0.36124407  0.30246833    -0.80000
O233        O  0.89860786  0.42841918  0.33756558    -0.78200
O234        O  0.83098479  0.41606318  0.34071215    -1.14300
O235        O  0.85720697  0.48223381  0.33811243    -0.73500
C236        C  0.84743087  0.49050373  0.36484566     0.97200
C237        C  0.76355655  0.37337322  0.34748123     0.93600
Al238      Al  0.83851849  0.37085081  0.34528414     1.55600
O239        O  0.78498651  0.46840843  0.32845027    -0.78200
C240        C  0.90844863  0.39776116  0.34256368     0.97700
C241        C  0.82885961  0.39207155  0.40764053     0.92600
O242        O  0.80398325  0.41114705  0.39948116    -0.83500
O243        O  0.61570956  0.17966046  0.28666951    -0.82900
C244        C  0.63217777  0.21490071  0.41128611     0.96400
O245        O  0.65681371  0.21015385  0.39286896    -0.72100
O246        O  0.65190538  0.14997546  0.36560932    -0.75600
Al247      Al  0.65699344  0.19582101  0.35045410     1.49000
C248        C  0.63517381  0.12534260  0.35385441     0.91700
O249        O  0.55668673  0.16265068  0.35434956    -0.81900
O250        O  0.57553783  0.25716318  0.32295670    -0.75400
Al251      Al  0.58779597  0.17265816  0.32177202     1.90100
O252        O  0.54778616  0.21633547  0.36837715    -0.74500
O253        O  0.62938199  0.27028640  0.36017225    -0.74300
O254        O  0.60296609  0.22393131  0.40171369    -0.80000
O255        O  0.66887687  0.24066450  0.33613891    -0.78200
O256        O  0.61201632  0.20243496  0.34454846    -1.14300
O257        O  0.66627598  0.17990234  0.30942116    -0.73500
C258        C  0.64797608  0.17875642  0.28530229     0.97200
C259        C  0.53867380  0.18496066  0.36818623     0.93600
Al260      Al  0.59093912  0.23890575  0.36179443     1.55600
O261        O  0.61224109  0.13131036  0.33382414    -0.78200
C262        C  0.65823799  0.26890780  0.34712137     0.97700
C263        C  0.55718369  0.23962453  0.30453332     0.92600
O264        O  0.55786498  0.20687880  0.30477272    -0.83500
O265        O  0.62458665  0.86952886  0.23528549    -0.82900
C266        C  0.64131450  0.83192679  0.11099231     0.96400
O267        O  0.66530613  0.83864131  0.12970538    -0.72100
O268        O  0.65852114  0.89923615  0.15492187    -0.75600
Al269      Al  0.66508672  0.85451039  0.17151198     1.49000
C270        C  0.64288078  0.92381978  0.16769576     0.91700
O271        O  0.56550549  0.88729871  0.16745550    -0.77100
O272        O  0.58299526  0.79298765  0.20056225    -0.75400
Al273      Al  0.59655145  0.87718454  0.20032255     1.90100
O274        O  0.55696074  0.83338160  0.15297593    -0.74500
O275        O  0.63818522  0.77872070  0.16596859    -0.74300
O276        O  0.61230888  0.82275875  0.12074653    -0.80000
O277        O  0.67766633  0.81106911  0.18718341    -0.78200
O278        O  0.62043266  0.84717335  0.17774611    -1.14300
O279        O  0.67459751  0.87219553  0.21209468    -0.73500
C280        C  0.65680108  0.87176941  0.23638898     0.97200
C281        C  0.54788851  0.86491377  0.15311732     0.93600
Al282      Al  0.59962344  0.80999902  0.16142325     1.55600
O283        O  0.62126246  0.91808839  0.18866883    -0.78200
C284        C  0.66707015  0.78169095  0.17920882     0.97700
C285        C  0.56381163  0.81140396  0.21736422     0.92600
O286        O  0.56616838  0.84400629  0.21689902    -0.83500
O287        O  0.83137045  0.57768026  0.13694915    -0.82900
C288        C  0.85642054  0.67632439  0.23239773     0.96400
O289        O  0.87066102  0.64721333  0.22889250    -0.72100
O290        O  0.82568291  0.59653794  0.22561315    -0.75600
Al291      Al  0.86324044  0.60988745  0.20066350     1.49000
C292        C  0.80025065  0.57930066  0.21603359     0.91700
O293        O  0.76844308  0.64361176  0.17053265    -0.81900
O294        O  0.85124544  0.67148276  0.12564288    -0.75400
Al295      Al  0.80206651  0.61213836  0.15470021     1.90100
O296        O  0.79785733  0.69114856  0.16287655    -0.74500
O297        O  0.89312472  0.67583118  0.17259804    -0.74300
O298        O  0.83884209  0.68975796  0.21095165    -0.80000
O299        O  0.90382329  0.62050766  0.17849182    -0.78200
O300        O  0.83653393  0.63335118  0.17458569    -1.14300
O301        O  0.86200439  0.56733391  0.17847124    -0.73500
C302        C  0.85114711  0.55804702  0.15226229     0.97200
C303        C  0.77010530  0.67624940  0.16953949     0.93600
Al304      Al  0.84443887  0.67827673  0.16839720     1.55600
O305        O  0.79038502  0.58165484  0.18820783    -0.78200
C306        C  0.91398985  0.65084392  0.17267928     0.97700
C307        C  0.83150160  0.65625274  0.10694855     0.92600
O308        O  0.80707195  0.63756843  0.11644212    -0.83500
O309        O  0.39922642  0.87103465  0.28988817    -0.82900
C310        C  0.38307079  0.82461554  0.41140351     0.96400
O311        O  0.35884836  0.83291994  0.39334047    -0.72100
O312        O  0.36237289  0.89428743  0.36912773    -0.75600
Al313      Al  0.35779692  0.84955858  0.35178362     1.49000
C314        C  0.37870030  0.91954115  0.35835142     0.91700
O315        O  0.45715569  0.88269708  0.35971964    -0.81900
O316        O  0.43955200  0.79203618  0.31842686    -0.75400
Al317      Al  0.42679249  0.87545215  0.32548947     1.90100
O318        O  0.46711193  0.82748613  0.36812797    -0.74500
O319        O  0.38620841  0.77384401  0.35439348    -0.74300
O320        O  0.41187621  0.81521065  0.40095167    -0.80000
O321        O  0.34558781  0.80633134  0.33547288    -0.78200
O322        O  0.40273188  0.84341327  0.34552872    -1.14300
O323        O  0.34825806  0.86728507  0.31126822    -0.73500
C324        C  0.36701849  0.87022321  0.28770580     0.97200
C325        C  0.47568895  0.85891993  0.37099755     0.93600
Al326      Al  0.42417945  0.80526687  0.35932214     1.55600
O327        O  0.40195487  0.91479045  0.33888424    -0.78200
C328        C  0.35684973  0.77689571  0.34229291     0.97700
C329        C  0.45685780  0.81200493  0.30117908     0.92600
O330        O  0.45752115  0.84416679  0.30618751    -0.83500
O331        O  0.19068525  0.57422667  0.37961841    -0.82900
C332        C  0.16875305  0.67142408  0.28274593     0.96400
O333        O  0.15328351  0.64305643  0.28666296    -0.72100
O334        O  0.19780296  0.59224273  0.29119108    -0.75600
Al335      Al  0.16010730  0.60605812  0.31540948     1.49000
C336        C  0.22343605  0.57542641  0.30095651     0.91700
O337        O  0.25504963  0.63924095  0.34795874    -0.81900
O338        O  0.17152177  0.66963134  0.38812289    -0.75400
Al339      Al  0.22038738  0.60828453  0.36249438     1.90100
O340        O  0.22562673  0.68725560  0.35275275    -0.74500
O341        O  0.13061757  0.67294564  0.34084617    -0.74300
O342        O  0.18685931  0.68445772  0.30387614    -0.80000
O343        O  0.11930779  0.61756231  0.33721457    -0.78200
O344        O  0.18678863  0.62956995  0.34141870    -1.14300
O345        O  0.16082292  0.56366510  0.33778337    -0.73500
C346        C  0.17135763  0.55452343  0.36412075     0.97200
C347        C  0.25360750  0.67187298  0.34831345     0.93600
Al348      Al  0.17945901  0.67475464  0.34613198     1.55600
O349        O  0.23298946  0.57762482  0.32899433    -0.78200
C350        C  0.10935515  0.64830577  0.34177440     0.97700
C351        C  0.18886702  0.65395481  0.40828500     0.92600
O352        O  0.21331504  0.63408899  0.40049321    -0.83500
C353        C  0.33956984  0.71679783  0.35708489    -0.10300
C354        C  0.33400244  0.74635810  0.33848283     0.05900
C355        C  0.30383122  0.74787307  0.32008602    -0.04100
C356        C  0.27946377  0.72166079  0.32224804    -0.08500
C357        C  0.28387318  0.69365821  0.34247835     0.05000
C358        C  0.31463638  0.69068143  0.35939658    -0.03500
Br359      Br  0.32172452  0.65415860  0.38886006    -0.03200
H360        H  0.36222698  0.71512235  0.37162740     0.08900
H361        H  0.25582633  0.72411075  0.30910488     0.06900
Br362      Br  0.29220357  0.78547303  0.29272047    -0.03700
C363        C  0.68256078  0.71985483  0.16778502    -0.10300
C364        C  0.69028536  0.75124707  0.18305943     0.05900
C365        C  0.72242282  0.75416668  0.19837451    -0.04100
C366        C  0.74704951  0.72831161  0.19471517    -0.08500
C367        C  0.74045461  0.69857612  0.17706312     0.05000
C368        C  0.70722513  0.69341518  0.16502740    -0.03500
Br369      Br  0.69518345  0.65241653  0.14238147    -0.03200
H370        H  0.65791621  0.71650203  0.15650227     0.08900
H371        H  0.77215771  0.73197275  0.20510697     0.06900
Br372      Br  0.73577686  0.79266506  0.22414778    -0.03700
C373        C  0.50275964  0.81309309  0.22529430    -0.10300
C374        C  0.53369564  0.79733112  0.23362148     0.05900
C375        C  0.53525089  0.77792819  0.26121975    -0.04100
C376        C  0.50725145  0.77861917  0.28181250    -0.08500
C377        C  0.47827824  0.79931403  0.27537576     0.05000
C378        C  0.47597499  0.81563085  0.24613394    -0.03500
Br379      Br  0.44073035  0.84762388  0.23446746    -0.03200
H380        H  0.50117974  0.82786912  0.20393750     0.08900
H381        H  0.50973314  0.76614969  0.30419110     0.06900
Br382      Br  0.57564555  0.75298780  0.27284883    -0.03700
C383        C  0.71003735  0.34897292  0.37011022    -0.10300
C384        C  0.73213027  0.35200818  0.34471734     0.05900
C385        C  0.72728797  0.32977401  0.31921847    -0.04100
C386        C  0.70190424  0.30419400  0.31978885    -0.08500
C387        C  0.68076467  0.29993233  0.34567466     0.05000
C388        C  0.68459580  0.32313990  0.37087372    -0.03500
Br389      Br  0.65912661  0.31813005  0.40853742    -0.03200
H390        H  0.71401450  0.36526243  0.39024874     0.08900
H391        H  0.69939027  0.28678195  0.30021032     0.06900
Br392      Br  0.75534757  0.33252785  0.28327809    -0.03700
C393        C  0.77787303  0.49215397  0.24876700    -0.10300
C394        C  0.78118089  0.49912897  0.28049780     0.05900
C395        C  0.78112166  0.53398912  0.29050852    -0.04100
C396        C  0.78373360  0.56067721  0.26873884    -0.08500
C397        C  0.78493136  0.55334408  0.23696452     0.05000
C398        C  0.77900543  0.51894224  0.22696483    -0.03500
Br399      Br  0.77750330  0.50575418  0.18408712    -0.03200
H400        H  0.77744087  0.46551968  0.24076947     0.08900
H401        H  0.78745444  0.58704591  0.27675388     0.06900
Br402      Br  0.78259143  0.54689645  0.33337497    -0.03700
C403        C  0.24019030  0.52505485  0.22840531    -0.10300
C404        C  0.23908998  0.49133710  0.24051451     0.05900
C405        C  0.24292283  0.48660507  0.27267632    -0.04100
C406        C  0.24333500  0.51547708  0.29233193    -0.08500
C407        C  0.23848782  0.54901052  0.28035486     0.05000
C408        C  0.23918178  0.55381051  0.24800962    -0.03500
Br409      Br  0.23476549  0.59863200  0.22922775    -0.03200
H410        H  0.23748404  0.52916986  0.20367969     0.08900
H411        H  0.24316287  0.51128026  0.31714605     0.06900
Br412      Br  0.24428953  0.44136936  0.29097775    -0.03700
C413        C  0.33724743  0.32171419  0.15895230    -0.10300
C414        C  0.33453970  0.29502841  0.18109565     0.05900
C415        C  0.30771298  0.29677814  0.20295734    -0.04100
C416        C  0.28220501  0.32197883  0.19985908    -0.08500
C417        C  0.28359825  0.34696804  0.17640625     0.05000
C418        C  0.31220399  0.34778373  0.15671225    -0.03500
Br419      Br  0.31644271  0.38177830  0.12461290    -0.03200
H420        H  0.35780215  0.32128632  0.14217498     0.08900
H421        H  0.26057745  0.32155857  0.21546013     0.06900
Br422      Br  0.30413374  0.26599719  0.23776380    -0.03700
C423        C  0.47228249  0.25501040  0.26883489    -0.10300
C424        C  0.48122785  0.25174213  0.23762498     0.05900
C425        C  0.51582886  0.25506238  0.22898600    -0.04100
C426        C  0.54127185  0.25708631  0.25180364    -0.08500
C427        C  0.53263942  0.25593959  0.28319768     0.05000
C428        C  0.49778784  0.25745231  0.29163631    -0.03500
Br429      Br  0.48393235  0.25709664  0.33415770    -0.03200
H430        H  0.44573173  0.25218735  0.27571068     0.08900
H431        H  0.56784496  0.25544894  0.24499644     0.06900
Br432      Br  0.52998721  0.25101906  0.18667016    -0.03700
C433        C  0.62840306  0.03137277  0.38106721    -0.10300
C434        C  0.66320708  0.02198679  0.38357673     0.05900
C435        C  0.68832287  0.04645983  0.37501218    -0.04100
C436        C  0.67847593  0.07963985  0.36510854    -0.08500
C437        C  0.64376954  0.08919102  0.36295678     0.05000
C438        C  0.61853934  0.06442680  0.37055277    -0.03500
Br439      Br  0.57046233  0.07519775  0.36955558    -0.03200
H440        H  0.60876480  0.01309867  0.38792461     0.08900
H441        H  0.69817618  0.09833189  0.35936884     0.06900
Br442      Br  0.73655512  0.03740224  0.37903653    -0.03700
C443        C  0.68373581  0.84769542  0.03332377    -0.10300
C444        C  0.65609382  0.86096692  0.01612332     0.05900
C445        C  0.62307063  0.86091178  0.02929457    -0.04100
C446        C  0.61864661  0.84951695  0.05969782    -0.08500
C447        C  0.64655116  0.83772515  0.07749572     0.05000
C448        C  0.67924226  0.83581559  0.06364418    -0.03500
Br449      Br  0.71862723  0.81690188  0.08458919    -0.03200
H450        H  0.70922257  0.84782622  0.02362952     0.08900
H451        H  0.59341885  0.85134842  0.06987281     0.06900
Br452      Br  0.58295111  0.87566507  0.50688274    -0.03700
C453        C  0.69025802  0.90439286  0.27537359    -0.10300
C454        C  0.67364426  0.87382320  0.26657724     0.05900
C455        C  0.67075902  0.84643175  0.28770081    -0.04100
C456        C  0.68178515  0.85085705  0.31813847    -0.08500
C457        C  0.69581775  0.88252451  0.32803163     0.05000
C458        C  0.70137052  0.90908357  0.30593208    -0.03500
Br459      Br  0.72055653  0.95355633  0.31592169    -0.03200
H460        H  0.69284354  0.92539127  0.25887422     0.08900
H461        H  0.67821882  0.82981237  0.33441814     0.06900
Br462      Br  0.65176610  0.80264013  0.27583545    -0.03700
C463        C  0.54801170  0.90320355  0.41527619    -0.10300
C464        C  0.57634661  0.88324504  0.40589722     0.05900
C465        C  0.57060258  0.85413302  0.38660447    -0.04100
C466        C  0.53748419  0.84657554  0.37623723    -0.08500
C467        C  0.50941847  0.86708146  0.38485805     0.05000
C468        C  0.51468036  0.89494438  0.40538981    -0.03500
Br469      Br  0.47708949  0.91993058  0.42311614    -0.03200
H470        H  0.55168376  0.92474857  0.43104474     0.08900
H471        H  0.53374705  0.82487479  0.36062325     0.06900
Br472      Br  0.60652890  0.82432623  0.37186087    -0.03700
C473        C  0.02726050  0.69724406  0.35950899    -0.10300
C474        C  0.00851796  0.67218734  0.37587938     0.05900
C475        C  0.02102920  0.63759180  0.37627332    -0.04100
C476        C  0.05316406  0.62998674  0.36355286    -0.08500
C477        C  0.07308037  0.65585623  0.34960221     0.05000
C478        C  0.05879129  0.68931918  0.34599470    -0.03500
Br479      Br  0.08029368  0.72539712  0.32232175    -0.03200
H480        H  0.01764967  0.72351675  0.35752236     0.08900
H481        H  0.06320363  0.60388757  0.36573052     0.06900
Br482      Br  0.99682692  0.59915413  0.39422453    -0.03700
C483        C  0.81709642  0.85764240  0.41546201    -0.10300
C484        C  0.78780173  0.85184044  0.43353013     0.05900
C485        C  0.78677974  0.82202198  0.45238293    -0.04100
C486        C  0.81324859  0.79772527  0.45135619    -0.08500
C487        C  0.84098466  0.80145569  0.43099579     0.05000
C488        C  0.84349033  0.83270859  0.41379852    -0.03500
Br489      Br  0.88006138  0.84186159  0.38535654    -0.03200
H490        H  0.81823926  0.88033618  0.40072088     0.08900
H491        H  0.81094870  0.77460628  0.46544872     0.06900
Br492      Br  0.74901913  0.81158781  0.47896494    -0.03700
C493        C  0.83282871  0.68634311  0.02338747    -0.10300
C494        C  0.86055872  0.66686423  0.01203490     0.05900
C495        C  0.87619226  0.64189219  0.03144457    -0.04100
C496        C  0.86530676  0.63814512  0.06198649    -0.08500
C497        C  0.83876511  0.65865377  0.07370606     0.05000
C498        C  0.82199345  0.68249362  0.05415752    -0.03500
Br499      Br  0.78570005  0.71146517  0.06915700    -0.03200
H500        H  0.82253100  0.70840123  0.50969202     0.08900
H501        H  0.87805678  0.61948900  0.07689932     0.06900
Br502      Br  0.91200965  0.61148851  0.01746685    -0.03700
C503        C  0.89624442  0.70054952  0.27083505    -0.10300
C504        C  0.86229796  0.69475782  0.26163001     0.05900
C505        C  0.83550977  0.70257731  0.28204915    -0.04100
C506        C  0.84317898  0.71361419  0.31218759    -0.08500
C507        C  0.87743147  0.71730944  0.32232685     0.05000
C508        C  0.90412860  0.71226330  0.30057674    -0.03500
Br509      Br  0.95217637  0.71788921  0.30957443    -0.03200
H510        H  0.91694983  0.69457273  0.25506518     0.08900
H511        H  0.82223137  0.71765970  0.32816855     0.06900
Br512      Br  0.78846070  0.69480024  0.27091843    -0.03700
C513        C  0.86767963  0.55073714  0.35631193    -0.10300
C514        C  0.85810692  0.52469860  0.37748241     0.05900
C515        C  0.85784441  0.53276852  0.40941151    -0.04100
C516        C  0.86642561  0.56631631  0.41926617    -0.08500
C517        C  0.87446106  0.59240462  0.39784926     0.05000
C518        C  0.87526680  0.58436616  0.36614334    -0.03500
Br519      Br  0.88757202  0.61807318  0.33538916    -0.03200
H520        H  0.86824897  0.54529890  0.33170990     0.08900
H521        H  0.86619624  0.57227608  0.44378487     0.06900
Br522      Br  0.84706015  0.49932793  0.44083524    -0.03700
C523        C  0.02382280  0.40486430  0.13310296    -0.10300
C524        C  0.00805298  0.37310922  0.14055583     0.05900
C525        C  0.02462879  0.35104664  0.16215617    -0.04100
C526        C  0.05701608  0.35978270  0.17383828    -0.08500
C527        C  0.07343979  0.39060143  0.16515527     0.05000
C528        C  0.05611490  0.41375398  0.14516623    -0.03500
Br529      Br  0.07641540  0.45628005  0.13112389    -0.03200
H530        H  0.01170123  0.42232803  0.11672669     0.08900
H531        H  0.06967450  0.34209104  0.18970498     0.06900
Br532      Br  0.00475630  0.30885831  0.17747923    -0.03700
C533        C  0.81431511  0.38259909  0.46333555    -0.10300
C534        C  0.83883860  0.38919216  0.44045701     0.05900
C535        C  0.87349850  0.39250563  0.44912779    -0.04100
C536        C  0.88350222  0.38685123  0.47957508    -0.08500
C537        C  0.85954450  0.37861278  0.00255478     0.05000
C538        C  0.82426522  0.37743745  0.49432422    -0.03500
Br539      Br  0.78823420  0.36854602  0.02340486    -0.03200
H540        H  0.78745985  0.38074232  0.45697928     0.08900
H541        H  0.91049106  0.38932537  0.98518254     0.06900
Br542      Br  0.90843233  0.40741965  0.42113427    -0.03700
C543        C  0.89872886  0.33973604  0.21345490    -0.10300
C544        C  0.87166187  0.33252886  0.19289841     0.05900
C545        C  0.83754358  0.33417832  0.20381247    -0.04100
C546        C  0.83119803  0.34663248  0.23359121    -0.08500
C547        C  0.85822454  0.35641721  0.25306728     0.05000
C548        C  0.89227465  0.35160057  0.24327962    -0.03500
Br549      Br  0.93105146  0.36184974  0.26926951    -0.03200
H550        H  0.92512978  0.33806967  0.20585239     0.08900
H551        H  0.80503080  0.35050196  0.24079437     0.06900
Br552      Br  0.79844187  0.32016901  0.17959827    -0.03700
C553        C  0.85984250  0.51705017  0.10817200    -0.10300
C554        C  0.86069475  0.52325566  0.14026609     0.05900
C555        C  0.86929552  0.49540629  0.16039868    -0.04100
C556        C  0.87547469  0.46242443  0.14829388    -0.08500
C557        C  0.87447392  0.45639894  0.11640370     0.05000
C558        C  0.86711375  0.48408503  0.09615078    -0.03500
Br559      Br  0.86485859  0.47771647  0.05210264    -0.03200
H560        H  0.85347777  0.53790125  0.09233636     0.08900
H561        H  0.88143773  0.44125924  0.16394985     0.06900
Br562      Br  0.87188472  0.49920516  0.20479999    -0.03700
C563        C  0.73434541  0.03132227  0.47988877    -0.10300
C564        C  0.73058898  0.99723740  0.49068673     0.05900
C565        C  0.73189383  0.99059421  0.02268323    -0.04100
C566        C  0.73339391  0.01832677  0.04345488    -0.08500
C567        C  0.73217923  0.05262307  0.03260898     0.05000
C568        C  0.73450522  0.05907567  0.00061541    -0.03500
Br569      Br  0.73378958  0.10536772  0.48419261    -0.03200
H570        H  0.73328753  0.03664978  0.45526489     0.08900
H571        H  0.73139113  0.01307582  0.06803554     0.06900
Br572      Br  0.72803179  0.94442208  0.03892671    -0.03700
C573        C  0.69012897  0.00645840  0.14809370    -0.10300
C574        C  0.66337512  0.02715933  0.13656635     0.05900
C575        C  0.62952116  0.01422464  0.13681168    -0.04100
C576        C  0.62312458  0.98082183  0.14802368    -0.08500
C577        C  0.65014741  0.95963053  0.15818673     0.05000
C578        C  0.68383672  0.97276803  0.15849315    -0.03500
Br579      Br  0.72203331  0.94598577  0.17335838    -0.03200
H580        H  0.71624827  0.01604266  0.14789988     0.08900
H581        H  0.59710144  0.97096529  0.14795176     0.06900
Br582      Br  0.59106518  0.04109365  0.12261530    -0.03700
C583        C  0.83441087  0.22565576  0.11535066    -0.10300
C584        C  0.83692346  0.24785808  0.08960351     0.05900
C585        C  0.81473695  0.24251139  0.06414296    -0.04100
C586        C  0.78895367  0.21734225  0.06589119    -0.08500
C587        C  0.78486294  0.19710862  0.09253541     0.05000
C588        C  0.80854550  0.20054259  0.11700259    -0.03500
Br589      Br  0.80435504  0.17396604  0.15434602    -0.03200
H590        H  0.85114944  0.22934102  0.13518175     0.08900
H591        H  0.77141724  0.21414106  0.04670067     0.06900
Br592      Br  0.81846695  0.26871051  0.02650947    -0.03700
C593        C  0.66660277  0.22077405  0.45928940    -0.10300
C594        C  0.63736028  0.20795292  0.44424108     0.05900
C595        C  0.61500551  0.18571375  0.46013385    -0.04100
C596        C  0.62256699  0.17614583  0.99041807    -0.08500
C597        C  0.65251015  0.18772735  0.00542170     0.05000
C598        C  0.67418784  0.21113642  0.48979166    -0.03500
Br599      Br  0.71534656  0.22964526  0.50749995    -0.03200
H600        H  0.68394741  0.23781955  0.44702416     0.08900
H601        H  0.60524931  0.15841090  0.00190101     0.06900
Br602      Br  0.57610626  0.16406444  0.44076831    -0.03700
C603        C  0.68215919  0.14603569  0.24697962    -0.10300
C604        C  0.66445635  0.17628969  0.25499914     0.05900
C605        C  0.66113968  0.20319088  0.23335253    -0.04100
C606        C  0.67303278  0.19852001  0.20324651    -0.08500
C607        C  0.68871506  0.16726498  0.19423288     0.05000
C608        C  0.69435441  0.14123054  0.21683934    -0.03500
Br609      Br  0.71550470  0.09736250  0.20800054    -0.03200
H610        H  0.68513779  0.12543632  0.26385244     0.08900
H611        H  0.66916688  0.21916391  0.18656682     0.06900
Br612      Br  0.64112372  0.24693405  0.24419832    -0.03700
C613        C  0.51966386  0.18851597  0.11294333    -0.10300
C614        C  0.50823974  0.16988248  0.13889691     0.05900
C615        C  0.52999102  0.14433578  0.15198275    -0.04100
C616        C  0.56222936  0.13808172  0.13906596    -0.08500
C617        C  0.57379783  0.15734146  0.11369672     0.05000
C618        C  0.55212440  0.18249904  0.10035962    -0.03500
Br619      Br  0.56512707  0.20837966  0.06431681    -0.03200
H620        H  0.50334457  0.20809466  0.10250170     0.08900
H621        H  0.57899303  0.11902555  0.14972010     0.06900
Br622      Br  0.51919141  0.11944131  0.18919375    -0.03700
C623        C  0.33317339  0.03763051  0.14898328    -0.10300
C624        C  0.35868751  0.01958666  0.13273588     0.05900
C625        C  0.39125077  0.03512113  0.12891261    -0.04100
C626        C  0.39768926  0.06783136  0.14160794    -0.08500
C627        C  0.37181858  0.08606995  0.15698430     0.05000
C628        C  0.33928572  0.07089693  0.16052564    -0.03500
Br629      Br  0.30241136  0.09454233  0.18090525    -0.03200
H630        H  0.30792682  0.02634984  0.15172656     0.08900
H631        H  0.42268574  0.07960329  0.13858775     0.06900
Br632      Br  0.42810388  0.01342722  0.10677150    -0.03700
C633        C  0.34164429  0.83902167  0.48983682    -0.10300
C634        C  0.36919604  0.85351454  0.00628620     0.05900
C635        C  0.40204402  0.85369619  0.99272041    -0.04100
C636        C  0.40641611  0.84135028  0.46259161    -0.08500
C637        C  0.37837607  0.82938731  0.44512583     0.05000
C638        C  0.34584192  0.82732109  0.45937702    -0.03500
Br639      Br  0.30608489  0.80922933  0.43851588    -0.03200
H640        H  0.31636517  0.83837088  0.50014971     0.08900
H641        H  0.43157823  0.84311502  0.45215148     0.06900
Br642      Br  0.44195962  0.87071723  0.01402395    -0.03700
C643        C  0.34361780  0.84912310  0.20539071    -0.10300
C644        C  0.33258552  0.88162692  0.19452116     0.05900
C645        C  0.32905012  0.90928507  0.21583687    -0.04100
C646        C  0.33862999  0.90452482  0.24678712    -0.08500
C647        C  0.35139964  0.87261415  0.25695153     0.05000
C648        C  0.35265452  0.84437347  0.23641999    -0.03500
Br649      Br  0.36789841  0.79924143  0.24948564    -0.03200
H650        H  0.34603130  0.82751297  0.18951219     0.08900
H651        H  0.33767954  0.92627784  0.26265355     0.06900
Br652      Br  0.31482224  0.95510401  0.20412618    -0.03700
C653        C  0.49496353  0.90119610  0.15168384    -0.10300
C654        C  0.51514031  0.87508161  0.13805521     0.05900
C655        C  0.50209434  0.85730353  0.11191984    -0.04100
C656        C  0.46946789  0.86527568  0.10046473    -0.08500
C657        C  0.44925820  0.89090064  0.11432211     0.05000
C658        C  0.46209708  0.90889786  0.14025541    -0.03500
Br659      Br  0.43417796  0.94091091  0.16306422    -0.03200
H660        H  0.50405136  0.91446547  0.17224893     0.08900
H661        H  0.45961352  0.85103078  0.08074149     0.06900
Br662      Br  0.52728448  0.82213186  0.09027901    -0.03700
C663        C  0.00116736  0.74578961  0.04096437    -0.10300
C664        C  0.03611543  0.74815406  0.03378268     0.05900
C665        C  0.04598279  0.75500279  0.00312828    -0.04100
C666        C  0.02084076  0.75542043  0.47977027    -0.08500
C667        C  0.98626435  0.74913036  0.48669916     0.05000
C668        C  0.97635669  0.74634983  0.01752947    -0.03500
Br669      Br  0.92941182  0.73834266  0.02857985    -0.03200
H670        H  0.99339588  0.74020454  0.06450441     0.08900
H671        H  0.02889061  0.75715997  0.45584345     0.06900
Br672      Br  0.09309905  0.75932803  0.49213998    -0.03700
C673        C  0.99807359  0.69688353  0.15772368    -0.10300
C674        C  0.01569766  0.67198968  0.14017965     0.05900
C675        C  0.00111849  0.63841757  0.13702812    -0.04100
C676        C  0.96867192  0.63165499  0.14922171    -0.08500
C677        C  0.95019310  0.65742196  0.16475996     0.05000
C678        C  0.96589249  0.68983213  0.17024099    -0.03500
Br679      Br  0.94537840  0.72541291  0.19521940    -0.03200
H680        H  0.00906622  0.72235566  0.16134343     0.08900
H681        H  0.95716085  0.60646198  0.14527186     0.06900
Br682      Br  0.02218052  0.60060223  0.11507829    -0.03700
C683        C  0.18463679  0.82373059  0.10606556    -0.10300
C684        C  0.18826355  0.79473184  0.08649993     0.05900
C685        C  0.21729722  0.79306337  0.06690953    -0.04100
C686        C  0.24292734  0.81825089  0.06922071    -0.08500
C687        C  0.24027938  0.84574696  0.09026238     0.05000
C688        C  0.21035489  0.84904648  0.10812612    -0.03500
Br689      Br  0.20532436  0.88504165  0.13844475    -0.03200
H690        H  0.16281122  0.82562660  0.12139737     0.08900
H691        H  0.26570980  0.81577393  0.05509065     0.06900
Br692      Br  0.22453081  0.75698588  0.03684740    -0.03700
C693        C  0.13822267  0.67475045  0.48033819    -0.10300
C694        C  0.16161824  0.66715255  0.00410056     0.05900
C695        C  0.19476260  0.65528883  0.99615447    -0.04100
C696        C  0.20341232  0.65123863  0.46484117    -0.08500
C697        C  0.17962905  0.65890717  0.44117028     0.05000
C698        C  0.14653225  0.67065468  0.44947719    -0.03500
Br699      Br  0.10948806  0.67997312  0.42101805    -0.03200
H700        H  0.11253236  0.68358095  0.48562414     0.08900
H701        H  0.22879527  0.64193802  0.45898110     0.06900
Br702      Br  0.22871627  0.64267755  0.02646737    -0.03700
C703        C  0.18295449  0.70988168  0.20394266    -0.10300
C704        C  0.14877632  0.71432494  0.19394788     0.05900
C705        C  0.12194109  0.70987439  0.21560814    -0.04100
C706        C  0.12950332  0.69701704  0.24493894    -0.08500
C707        C  0.16330354  0.69003018  0.25379574     0.05000
C708        C  0.19036293  0.69828164  0.23386186    -0.03500
Br709      Br  0.23740857  0.69136830  0.24549576    -0.03200
H710        H  0.20398360  0.71396156  0.18805813     0.08900
H711        H  0.10870421  0.69147473  0.26074574     0.06900
Br712      Br  0.07416944  0.71837147  0.20715114    -0.03700
C713        C  0.16365894  0.52827326  0.11313225    -0.10300
C714        C  0.16178090  0.52226740  0.14521386     0.05900
C715        C  0.15148254  0.54996218  0.16478588    -0.04100
C716        C  0.14478059  0.58266536  0.15214493    -0.08500
C717        C  0.14710078  0.58845940  0.12025766     0.05000
C718        C  0.15608353  0.56087348  0.10058565    -0.03500
Br719      Br  0.16043206  0.56698284  0.05667603    -0.03200
H720        H  0.17125951  0.50756576  0.09765693     0.08900
H721        H  0.13755422  0.60379513  0.16734487     0.06900
Br722      Br  0.14694958  0.54626881  0.20902247    -0.03700
C723        C  0.38433312  0.01417673  0.38130451    -0.10300
C724        C  0.34968550  0.02226562  0.38557004     0.05900
C725        C  0.32459927  0.99679549  0.37994619    -0.04100
C726        C  0.33470004  0.96329706  0.37163628    -0.08500
C727        C  0.36949266  0.95509821  0.36752382     0.05000
C728        C  0.39436712  0.98133075  0.37136322    -0.03500
Br729      Br  0.44243783  0.97422709  0.36447021    -0.03200
H730        H  0.40377044  0.03346637  0.38606565     0.08900
H731        H  0.31524068  0.94364217  0.36805215     0.06900
Br732      Br  0.27652234  0.00568221  0.38498696    -0.03700
C733        C  0.28008257  0.01410490  0.47886661    -0.10300
C734        C  0.28381247  0.04811381  0.49005221     0.05900
C735        C  0.28466905  0.05388918  0.02221561    -0.04100
C736        C  0.28608559  0.02565509  0.04241766    -0.08500
C737        C  0.28760837  0.99165776  0.03086833     0.05000
C738        C  0.28242220  0.98582073  0.99907362    -0.03500
Br739      Br  0.28131877  0.93983165  0.98215323    -0.03200
H740        H  0.27929046  0.00933055  0.45420007     0.08900
H741        H  0.28978424  0.03045161  0.06693558     0.06900
Br742      Br  0.28802171  0.09970052  0.53935032    -0.03700
C743        C  0.33326545  0.19364797  0.03437507    -0.10300
C744        C  0.36092361  0.18195367  0.01656941     0.05900
C745        C  0.39426164  0.18260013  0.02924548    -0.04100
C746        C  0.39929177  0.19366986  0.05962022    -0.08500
C747        C  0.37153616  0.20374071  0.07820636     0.05000
C748        C  0.33816715  0.20419750  0.06510445    -0.03500
Br749      Br  0.29818168  0.21880440  0.08746570    -0.03200
H750        H  0.30755261  0.19333017  0.02471851     0.08900
H751        H  0.42509000  0.19310179  0.06906982     0.06900
Br752      Br  0.43412168  0.16904220  0.50621307    -0.03700
C753        C  0.33037615  0.13208336  0.30982800    -0.10300
C754        C  0.32641098  0.16166878  0.32842278     0.05900
C755        C  0.33412036  0.19458181  0.31614284    -0.04100
C756        C  0.34700394  0.19733018  0.28616991    -0.08500
C757        C  0.35216392  0.16770747  0.26812247     0.05000
C758        C  0.34344479  0.13490218  0.27984321    -0.03500
Br759      Br  0.35145934  0.09328931  0.25663821    -0.03200
H760        H  0.32527711  0.10658084  0.31927769     0.08900
H761        H  0.35374903  0.22260787  0.27714387     0.06900
Br762      Br  0.32747894  0.23651468  0.33929662    -0.03700
C763        C  0.48863212  0.14511216  0.37170941    -0.10300
C764        C  0.50579440  0.17468141  0.38283891     0.05900
C765        C  0.49001540  0.19464128  0.40635178    -0.04100
C766        C  0.45790935  0.18496090  0.41775089    -0.08500
C767        C  0.44070671  0.15567435  0.40634664     0.05000
C768        C  0.45629766  0.13576589  0.38293273    -0.03500
Br769      Br  0.43320682  0.09799877  0.36289879    -0.03200
H770        H  0.49976063  0.12989084  0.35321419     0.08900
H771        H  0.44619643  0.20058767  0.43568435     0.06900
Br772      Br  0.51058044  0.23503690  0.42472554    -0.03700
C773        C  0.95248953  0.35419897  0.35650344    -0.10300
C774        C  0.94451223  0.38928524  0.35130889     0.05900
C775        C  0.97026057  0.41435906  0.35699125    -0.04100
C776        C  0.00201425  0.40397869  0.36936149    -0.08500
C777        C  0.00898223  0.36897971  0.37637412     0.05000
C778        C  0.98380505  0.34386994  0.36905567    -0.03500
Br779      Br  0.98812401  0.29505926  0.37752164    -0.03200
H780        H  0.93356486  0.33424081  0.35197983     0.08900
H781        H  0.02106882  0.42368450  0.37433746     0.06900
Br782      Br  0.96389298  0.46312186  0.34979116    -0.03700
C783        C  0.99715830  0.29187208  0.47911518    -0.10300
C784        C  0.03222678  0.29535160  0.48582298     0.05900
C785        C  0.04348509  0.29365468  0.01660424    -0.04100
C786        C  0.01945805  0.29352646  0.04051875    -0.08500
C787        C  0.98422015  0.29411386  0.03381776     0.05000
C788        C  0.97304934  0.29086606  0.00297167    -0.03500
Br789      Br  0.92521000  0.28985413  0.49273918    -0.03200
H790        H  0.98825446  0.29312135  0.45532994     0.08900
H791        H  0.02825417  0.29636957  0.06423241     0.06900
Br792      Br  0.09134057  0.29637955  0.02692424    -0.03700
C793        C  0.17765278  0.21973435  0.41318559    -0.10300
C794        C  0.18078918  0.24767379  0.43405233     0.05900
C795        C  0.20866181  0.24767872  0.45520865    -0.04100
C796        C  0.23367790  0.22175806  0.45347485    -0.08500
C797        C  0.23159462  0.19532515  0.43128934     0.05000
C798        C  0.20286161  0.19386729  0.41151579    -0.03500
Br799      Br  0.19921080  0.15998004  0.37913132    -0.03200
H800        H  0.15676634  0.21919263  0.39655757     0.08900
H801        H  0.25572474  0.22298431  0.46883381     0.06900
Br802      Br  0.21516523  0.28251858  0.48655595    -0.03700
C803        C  0.18819402  0.37971867  0.02328445    -0.10300
C804        C  0.15267554  0.38013599  0.01696079     0.05900
C805        C  0.12977523  0.38615604  0.04188275    -0.04100
C806        C  0.14251311  0.38926499  0.07192192    -0.08500
C807        C  0.17773051  0.38771209  0.07824651     0.05000
C808        C  0.20081736  0.38383336  0.05354823    -0.03500
Br809      Br  0.24944147  0.38188117  0.05996009    -0.03200
H810        H  0.20632697  0.37564094  0.00471495     0.08900
H811        H  0.12455311  0.39326570  0.09069395     0.06900
Br812      Br  0.08076194  0.39136286  0.03790904    -0.03700
C813        C  0.17947515  0.33197724  0.31673427    -0.10300
C814        C  0.14506905  0.32957252  0.32632337     0.05900
C815        C  0.11866371  0.33477467  0.30405610    -0.04100
C816        C  0.12708195  0.34531525  0.27422467    -0.08500
C817        C  0.16120196  0.35023300  0.26556512     0.05000
C818        C  0.18766329  0.34195804  0.28648645    -0.03500
Br819      Br  0.23502460  0.34695935  0.27580098    -0.03200
H820        H  0.20012647  0.32752753  0.33313871     0.08900
H821        H  0.10665224  0.35128358  0.25792972     0.06900
Br822      Br  0.07030773  0.33144295  0.31239782    -0.03700
C823        C  0.14585367  0.45954528  0.36855897    -0.10300
C824        C  0.14414618  0.45449544  0.40055571     0.05900
C825        C  0.15178749  0.48216784  0.42066933    -0.04100
C826        C  0.16060802  0.51458579  0.40845416    -0.08500
C827        C  0.16161782  0.52002081  0.37626694     0.05000
C828        C  0.15424665  0.49184320  0.35622012    -0.03500
Br829      Br  0.15670220  0.49436141  0.31179371    -0.03200
H830        H  0.14052630  0.43812347  0.35300850     0.08900
H831        H  0.16666971  0.53560589  0.42419158     0.06900
Br832      Br  0.15276537  0.47623149  0.46479956    -0.03700
O833        O  0.10861268  0.37117965  0.97986003    -0.82900
C834        C  0.13751774  0.32585561  0.85975299     0.96400
O835        O  0.16045957  0.33264237  0.87979876    -0.72100
O836        O  0.15254237  0.39425851  0.90254055    -0.75600
Al837      Al  0.15665944  0.35051004  0.92149131     1.49000
C838        C  0.13564312  0.41975733  0.91210962     0.91700
O839        O  0.05861241  0.38335250  0.90595803    -0.81900
O840        O  0.07454536  0.29180813  0.94648243    -0.75400
Al841      Al  0.08520337  0.37565069  0.94221106     1.90100
O842        O  0.04996623  0.32847087  0.89621242    -0.74500
O843        O  0.13047240  0.27554820  0.91451263    -0.74300
O844        O  0.10778046  0.31751142  0.86802598    -0.80000
O845        O  0.16722952  0.30738955  0.93979627    -0.78200
O846        O  0.11160158  0.34417057  0.92387182    -1.14300
O847        O  0.16134976  0.37009614  0.96270582    -0.73500
C848        C  0.14029680  0.37354466  0.98483549     0.97200
C849        C  0.04109509  0.35983080  0.89320436     0.93600
Al850      Al  0.09237448  0.30634288  0.90768264     1.55600
O851        O  0.11150308  0.41570876  0.93102451    -0.78200
C852        C  0.15786586  0.27821436  0.93002608     0.97700
C853        C  0.05444576  0.31039970  0.96218806     0.92600
O854        O  0.05292138  0.34286449  0.95827600    -0.83500
O855        O  0.31888519  0.07521812  0.88780946    -0.82900
C856        C  0.35448725  0.16713032  0.98575993     0.96400
O857        O  0.36957501  0.13939195  0.97838519    -0.72100
O858        O  0.32490867  0.08902365  0.97579922    -0.75600
Al859      Al  0.35907621  0.10443049  0.94849987     1.49000
C860        C  0.29706703  0.07437114  0.96859604     0.91700
O861        O  0.26044883  0.14106259  0.92584901    -0.81900
O862        O  0.33966671  0.17238460  0.88041383    -0.75400
Al863      Al  0.29295192  0.10975490  0.90834407     1.90100
O864        O  0.29020151  0.18878724  0.92181646    -0.74500
O865        O  0.38594589  0.17284263  0.92397050    -0.74300
O866        O  0.33440269  0.18194773  0.96700627    -0.80000
O867        O  0.39645670  0.11714361  0.92265971    -0.78200
O868        O  0.32928923  0.12959834  0.92674921    -1.14300
O869        O  0.35565736  0.06353127  0.92467273    -0.73500
C870        C  0.34095984  0.05555681  0.89977069     0.97200
C871        C  0.26215453  0.17363861  0.92614229     0.93600
Al872      Al  0.33669871  0.17511296  0.92352601     1.55600
O873        O  0.28333781  0.07872716  0.94222482    -0.78200
C874        C  0.40593247  0.14794641  0.91803923     0.97700
C875        C  0.32017760  0.15694877  0.86161621     0.92600
O876        O  0.29719955  0.13617049  0.87077048    -0.83500
O877        O  0.11704832  0.67424601  0.53979895    -0.82900
C878        C  0.14186922  0.71828880  0.66050554     0.96400
O879        O  0.16520105  0.71086613  0.64134487    -0.72100
O880        O  0.15673822  0.64885360  0.61944198    -0.75600
Al881      Al  0.16271256  0.69252462  0.60015590     1.49000
C882        C  0.14055604  0.62358166  0.60833369     0.91700
O883        O  0.06584964  0.66001215  0.61123594    -0.81900
O884        O  0.08064833  0.75195915  0.57168356    -0.75400
Al885      Al  0.09256891  0.66842060  0.57606152     1.90100
O886        O  0.05523120  0.71452006  0.62167968    -0.74500
O887        O  0.13649981  0.76819897  0.60463420    -0.74300
O888        O  0.11244972  0.72683683  0.65126662    -0.80000
O889        O  0.17448532  0.73517040  0.58214944    -0.78200
O890        O  0.11794015  0.69964988  0.59567357    -1.14300
O891        O  0.16910204  0.67271838  0.55929881    -0.73500
C892        C  0.14898323  0.67150864  0.53618719     0.97200
C893        C  0.04748296  0.68260946  0.62400283     0.93600
Al894      Al  0.09797313  0.73747893  0.61104715     1.55600
O895        O  0.11869493  0.62814944  0.58719916    -0.78200
C896        C  0.16469785  0.76473711  0.59053491     0.97700
C897        C  0.06052788  0.73321457  0.55603151     0.92600
O898        O  0.05998339  0.70073847  0.55963980    -0.83500
O899        O  0.32917209  0.96586857  0.63176454    -0.82900
C900        C  0.36278833  0.87047945  0.53633119     0.96400
O901        O  0.37615916  0.89963986  0.54165170    -0.72100
O902        O  0.32879891  0.94876436  0.54274816    -0.75600
Al903      Al  0.36511806  0.93609791  0.56998918     1.49000
C904        C  0.30223820  0.96491849  0.55129222     0.91700
O905        O  0.26888310  0.90009149  0.59545313    -0.81900
O906        O  0.34861592  0.87109376  0.64276395    -0.75400
Al907      Al  0.30152286  0.93166984  0.61235154     1.90100
O908        O  0.29900143  0.85238594  0.60073661    -0.74500
O909        O  0.39477234  0.87029377  0.59934535    -0.74300
O910        O  0.34389563  0.85630886  0.55622809    -0.80000
O911        O  0.40387429  0.92626630  0.59545016    -0.78200
O912        O  0.33723738  0.91132232  0.59386947    -1.14300
O913        O  0.36129620  0.97860111  0.59212018    -0.73500
C914        C  0.34972858  0.98603094  0.61841784     0.97200
C915        C  0.27081970  0.86746303  0.59571257     0.93600
Al916      Al  0.34570427  0.86630535  0.59935346     1.55600
O917        O  0.29108105  0.96214888  0.57860129    -0.78200
C918        C  0.41413175  0.89629427  0.60262417     0.97700
C919        C  0.32838994  0.88654097  0.66079674     0.92600
O920        O  0.30521538  0.90624979  0.65033002    -0.83500
O921        O  0.69321229  0.08056447  0.63459760    -0.82900
C922        C  0.66035065  0.17259952  0.53609561     0.96400
O923        O  0.64607932  0.14439074  0.54318705    -0.72100
O924        O  0.69173955  0.09495360  0.54547756    -0.75600
Al925      Al  0.65663726  0.10909689  0.57237380     1.49000
C926        C  0.71852490  0.07900261  0.55371333     0.91700
O927        O  0.75425930  0.14407627  0.59682343    -0.81900
O928        O  0.67510638  0.17684231  0.64178713    -0.75400
Al929      Al  0.72097592  0.11379218  0.61420126     1.90100
O930        O  0.72531358  0.19268918  0.60002838    -0.74500
O931        O  0.62867709  0.17689510  0.59823460    -0.74300
O932        O  0.68005995  0.18738399  0.55511981    -0.80000
O933        O  0.61889313  0.12086890  0.59754455    -0.78200
O934        O  0.68551972  0.13419231  0.59505267    -1.14300
O935        O  0.65981658  0.06737133  0.59566383    -0.73500
C936        C  0.67204713  0.06042527  0.62190799     0.97200
C937        C  0.75320341  0.17670227  0.59630956     0.93600
Al938      Al  0.67814083  0.17968188  0.59856293     1.55600
O939        O  0.73062605  0.08205392  0.58085057    -0.78200
C940        C  0.60882401  0.15141176  0.60244051     0.97700
C941        C  0.69440928  0.16142253  0.66079446     0.92600
O942        O  0.71738004  0.14077172  0.65149885    -0.83500
O943        O  0.90515058  0.36943443  0.53790516    -0.82900
C944        C  0.87985108  0.32834805  0.65984929     0.96400
O945        O  0.85708791  0.33447514  0.63967583    -0.72100
O946        O  0.86463749  0.39599634  0.61608144    -0.75600
Al947      Al  0.85989196  0.35134703  0.59819666     1.49000
C948        C  0.88133390  0.42107035  0.60522753     0.91700
O949        O  0.95857448  0.38530691  0.60966777    -0.81900
O950        O  0.94239317  0.29180571  0.57380618    -0.75400
Al951      Al  0.93033333  0.37575084  0.57463824     1.90100
O952        O  0.96770329  0.33114533  0.62220832    -0.74500
O953        O  0.88701662  0.27701965  0.60723384    -0.74300
O954        O  0.91016302  0.32115053  0.65201050    -0.80000
O955        O  0.84930092  0.30732878  0.58110083    -0.78200
O956        O  0.90497925  0.34510050  0.59498642    -1.14300
O957        O  0.85338574  0.36986334  0.55724015    -0.73500
C958        C  0.87312682  0.37206379  0.53424395     0.97200
C959        C  0.97612006  0.36276100  0.62385636     0.93600
Al960      Al  0.92507026  0.30824799  0.61232534     1.55600
O961        O  0.90434685  0.41613647  0.58535657    -0.78200
C962        C  0.85937314  0.27873421  0.59193861     0.97700
C963        C  0.96147308  0.30992020  0.55672129     0.92600
O964        O  0.96202700  0.34256429  0.55887126    -0.83500
O965        O  0.90672327  0.67632251  0.97821891    -0.82900
C966        C  0.88424691  0.72138338  0.85597956     0.96400
O967        O  0.86067274  0.71514575  0.87525638    -0.72100
O968        O  0.86645747  0.65315833  0.89841032    -0.75600
Al969      Al  0.86235274  0.69756267  0.91696503     1.49000
C970        C  0.88247214  0.62748269  0.90912206     0.91700
O971        O  0.95923928  0.66166836  0.90672829    -0.81900
O972        O  0.94622489  0.75418216  0.94496210    -0.75400
Al973      Al  0.93175677  0.67080353  0.94159814     1.90100
O974        O  0.97059838  0.71562657  0.89536769    -0.74500
O975        O  0.89131977  0.77227776  0.91159393    -0.74300
O976        O  0.91388721  0.72910735  0.86529258    -0.80000
O977        O  0.85224087  0.74113939  0.93443788    -0.78200
O978        O  0.90739222  0.70284820  0.92155561    -1.14300
O979        O  0.85494288  0.67860091  0.95795784    -0.73500
C980        C  0.87465779  0.67439798  0.98109163     0.97200
C981        C  0.97756468  0.68358702  0.89305157     0.93600
Al982      Al  0.92863358  0.73983211  0.90567683     1.55600
O983        O  0.90500576  0.63144095  0.92974557    -0.78200
C984        C  0.86313466  0.77027853  0.92578051     0.97700
C985        C  0.96436463  0.73490604  0.96207061     0.92600
O986        O  0.96431600  0.70239688  0.95873332    -0.83500
O987        O  0.69666817  0.97008898  0.88819642    -0.82900
C988        C  0.66237247  0.87630039  0.98538029     0.96400
O989        O  0.64718700  0.90407166  0.97810925    -0.72100
O990        O  0.68893753  0.95701125  0.97536839    -0.75600
Al991      Al  0.65588556  0.93903762  0.94773784     1.49000
C992        C  0.71705225  0.97140642  0.96897987     0.91700
O993        O  0.75707875  0.90548446  0.92776733    -0.81900
O994        O  0.68027274  0.87192034  0.87978129    -0.75400
Al995      Al  0.72352577  0.93595673  0.90942214     1.90100
O996        O  0.72880339  0.85701685  0.92311094    -0.74500
O997        O  0.63280060  0.86907369  0.92198784    -0.74300
O998        O  0.68267751  0.86190855  0.96670651    -0.80000
O999        O  0.61883706  0.92389063  0.92217815    -0.78200
O1000       O  0.68726859  0.91487273  0.92677387    -1.14300
O1001       O  0.65719164  0.97973648  0.92280364    -0.73500
C1002       C  0.67272957  0.98862700  0.89862978     0.97200
C1003       C  0.75636177  0.87280475  0.92829312     0.93600
Al1004     Al  0.68180632  0.86906358  0.92316919     1.55600
O1005       O  0.73148616  0.96687936  0.94319398    -0.78200
C1006       C  0.61111310  0.89266855  0.91703763     0.97700
C1007       C  0.69979640  0.88817744  0.86165732     0.92600
O1008       O  0.72158831  0.90957901  0.87188901    -0.83500
O1009       O  0.39992321  0.17315005  0.73568845    -0.82900
C1010       C  0.37839803  0.21045584  0.61141276     0.96400
O1011       O  0.35489231  0.20634430  0.63107235    -0.72100
O1012       O  0.36126801  0.14605504  0.65710489    -0.75600
Al1013     Al  0.35678616  0.19107708  0.67326064     1.49000
C1014       C  0.37879641  0.12141359  0.66776853     0.91700
O1015       O  0.45734992  0.15746257  0.66707834    -0.81900
O1016       O  0.43908312  0.25169181  0.69767698    -0.75400
Al1017     Al  0.42684045  0.16728745  0.69992131     1.90100
O1018       O  0.46515723  0.21077952  0.65165960    -0.74500
O1019       O  0.38407475  0.26495557  0.66286860    -0.74300
O1020       O  0.40837363  0.21826049  0.62000154    -0.80000
O1021       O  0.34633508  0.23539211  0.68897632    -0.78200
O1022       O  0.40196249  0.19717982  0.67774342    -1.14300
O1023       O  0.34886617  0.17405421  0.71409163    -0.73500
C1024       C  0.36780850  0.17165750  0.73768736     0.97200
C1025       C  0.47504746  0.17964699  0.65304769     0.93600
Al1026     Al  0.42228980  0.23339062  0.65957183     1.55600
O1027       O  0.40234677  0.12659421  0.68735884    -0.78200
C1028       C  0.35659839  0.26379660  0.67822194     0.97700
C1029       C  0.45715412  0.23450128  0.71655844     0.92600
O1030       O  0.45664203  0.20172411  0.71685215    -0.83500
O1031       O  0.19057242  0.46776095  0.64161163    -0.82900
C1032       C  0.16739660  0.36877679  0.73652792     0.96400
O1033       O  0.15278397  0.39768394  0.73277950    -0.72100
O1034       O  0.19929987  0.44698651  0.73013054    -0.75600
Al1035     Al  0.16091061  0.43533188  0.70515051     1.49000
C1036       C  0.22454126  0.46422479  0.72033382     0.91700
O1037       O  0.25470074  0.40131025  0.67197713    -0.81900
O1038       O  0.17036724  0.37371561  0.63050047    -0.75400
Al1039     Al  0.22036990  0.43304876  0.65810351     1.90100
O1040       O  0.22474309  0.35356266  0.66686038    -0.74500
O1041       O  0.12925044  0.37028776  0.67723393    -0.74300
O1042       O  0.18505442  0.35552645  0.71526512    -0.80000
O1043       O  0.12009784  0.42608982  0.68221872    -0.78200
O1044       O  0.18676543  0.41177889  0.67870687    -1.14300
O1045       O  0.16267288  0.47870296  0.68412527    -0.73500
C1046       C  0.17196764  0.48772828  0.65748335     0.97200
C1047       C  0.25298485  0.36869537  0.67122306     0.93600
Al1048     Al  0.17828748  0.36695348  0.67281508     1.55600
O1049       O  0.23343821  0.46262806  0.69217288    -0.78200
C1050       C  0.10936646  0.39618156  0.67538839     0.97700
C1051       C  0.18828263  0.38969706  0.61102665     0.92600
O1052       O  0.21320137  0.40845518  0.61958081    -0.83500
O1053       O  0.82742860  0.47085512  0.87951229    -0.82900
C1054       C  0.85104041  0.37466986  0.78202571     0.96400
O1055       O  0.86511683  0.40366893  0.78638022    -0.72100
O1056       O  0.82022767  0.45428928  0.79083923    -0.75600
Al1057     Al  0.85787908  0.44009975  0.81536580     1.49000
C1058       C  0.79512395  0.47166322  0.80077802     0.91700
O1059       O  0.76232727  0.40613035  0.84695356    -0.81900
O1060       O  0.84637185  0.37596365  0.88789609    -0.75400
Al1061     Al  0.79736933  0.43713784  0.86169662     1.90100
O1062       O  0.79175847  0.35788093  0.85083933    -0.74500
O1063       O  0.88712668  0.37310952  0.84093345    -0.74300
O1064       O  0.83229450  0.36124582  0.80246776    -0.80000
O1065       O  0.89861843  0.42836865  0.83757889    -0.78200
O1066       O  0.83099136  0.41605270  0.84071595    -1.14300
O1067       O  0.85725796  0.48220298  0.83814980    -0.73500
C1068       C  0.84748467  0.49046602  0.86488698     0.97200
C1069       C  0.76353768  0.37340363  0.84747130     0.93600
Al1070     Al  0.83849846  0.37083659  0.84527993     1.55600
O1071       O  0.78503386  0.46843761  0.82846947    -0.78200
C1072       C  0.90844386  0.39770351  0.84255829     0.97700
C1073       C  0.82884753  0.39205036  0.90762980     0.92600
O1074       O  0.80396815  0.41112163  0.89947131    -0.83500
O1075       O  0.61573317  0.17967252  0.78669269    -0.82900
C1076       C  0.63222112  0.21493017  0.91130045     0.96400
O1077       O  0.65685320  0.21019569  0.89287661    -0.72100
O1078       O  0.65198897  0.15000981  0.86561368    -0.75600
Al1079     Al  0.65702833  0.19586607  0.85046128     1.49000
C1080       C  0.63526030  0.12536757  0.85387014     0.91700
O1081       O  0.55672658  0.16262212  0.85437987    -0.81900
O1082       O  0.57551810  0.25714656  0.82298792    -0.75400
Al1083     Al  0.58783312  0.17265154  0.82180043     1.90100
O1084       O  0.54780600  0.21630003  0.86841656    -0.74500
O1085       O  0.62936352  0.27031378  0.86018709    -0.74300
O1086       O  0.60299977  0.22394051  0.90173588    -0.80000
O1087       O  0.66886927  0.24071908  0.83614342    -0.78200
O1088       O  0.61204125  0.20244476  0.84457135    -1.14300
O1089       O  0.66630823  0.17996197  0.80942623    -0.73500
C1090       C  0.64799930  0.17880157  0.78531428     0.97200
C1091       C  0.53869930  0.18492285  0.86821397     0.93600
Al1092     Al  0.59094447  0.23890192  0.86182137     1.55600
O1093       O  0.61230961  0.13132323  0.83385321    -0.78200
C1094       C  0.65821461  0.26895565  0.84712591     0.97700
C1095       C  0.55717460  0.23959626  0.80456531     0.92600
O1096       O  0.55787767  0.20685113  0.80480330    -0.83500
O1097       O  0.62457005  0.86949501  0.73528130    -0.82900
C1098       C  0.64133867  0.83189883  0.61099301     0.96400
O1099       O  0.66532583  0.83859353  0.62971641    -0.72100
O1100       O  0.65855002  0.89920212  0.65492952    -0.75600
Al1101     Al  0.66508951  0.85446782  0.67152202     1.49000
C1102       C  0.64290060  0.92378629  0.66769660     0.91700
O1103       O  0.56551905  0.88729111  0.66743770    -0.77100
O1104       O  0.58296505  0.79296980  0.70053072    -0.75400
Al1105     Al  0.59654955  0.87716174  0.70031125     1.90100
O1106       O  0.55696433  0.83338097  0.65294570    -0.74500
O1107       O  0.63815047  0.77869768  0.66595739    -0.74300
O1108       O  0.61232198  0.82274944  0.62073482    -0.80000
O1109       O  0.67763509  0.81101846  0.68720271    -0.78200
O1110       O  0.62042887  0.84714825  0.67773822    -1.14300
O1111       O  0.67458857  0.87215317  0.71210409    -0.73500
C1112       C  0.65678390  0.87173377  0.73639278     0.97200
C1113       C  0.54790147  0.86491465  0.65309069     0.93600
Al1114     Al  0.59961198  0.80998579  0.66140222     1.55600
O1115       O  0.62127565  0.91805607  0.68866443    -0.78200
C1116       C  0.66702122  0.78164768  0.67922286     0.97700
C1117       C  0.56378769  0.81138661  0.71733677     0.92600
O1118       O  0.56615212  0.84398871  0.71687791    -0.83500
O1119       O  0.83137258  0.57767059  0.63696857    -0.82900
C1120       C  0.85633062  0.67643732  0.73233021     0.96400
O1121       O  0.87060909  0.64734843  0.72883316    -0.72100
O1122       O  0.82567160  0.59664107  0.72560670    -0.75600
Al1123     Al  0.86320633  0.60999640  0.70063357     1.49000
C1124       C  0.80026375  0.57935539  0.71604668     0.91700
O1125       O  0.76835771  0.64355537  0.67047100    -0.81900
O1126       O  0.85099516  0.67164017  0.62551165    -0.75400
Al1127     Al  0.80203123  0.61210495  0.65468049     1.90100
O1128       O  0.79770891  0.69114642  0.66287575    -0.74500
O1129       O  0.89300666  0.67593454  0.67242577    -0.74300
O1130       O  0.83876256  0.68984688  0.71087037    -0.80000
O1131       O  0.90375559  0.62062924  0.67844655    -0.78200
O1132       O  0.83647030  0.63340469  0.67452796    -1.14300
O1133       O  0.86201772  0.56740251  0.67849395    -0.73500
C1134       C  0.85117236  0.55807795  0.65229268     0.97200
C1135       C  0.76998257  0.67619677  0.66952352     0.93600
Al1136     Al  0.84430245  0.67835234  0.66830850     1.55600
O1137       O  0.79038894  0.58166681  0.68822275    -0.78200
C1138       C  0.91389011  0.65095765  0.67256373     0.97700
C1139       C  0.83127815  0.65630211  0.60686311     0.92600
O1140       O  0.80701476  0.63743591  0.61640511    -0.83500
O1141       O  0.39918008  0.87095987  0.78985916    -0.82900
C1142       C  0.38306442  0.82460438  0.91139348     0.96400
O1143       O  0.35883418  0.83288084  0.89332952    -0.72100
O1144       O  0.36236116  0.89425316  0.86912409    -0.75600
Al1145     Al  0.35777743  0.84952792  0.85177523     1.49000
C1146       C  0.37865778  0.91951006  0.85831472     0.91700
O1147       O  0.45711795  0.88271200  0.85967022    -0.81900
O1148       O  0.43954545  0.79202019  0.81841395    -0.75400
Al1149     Al  0.42675105  0.87542723  0.82544916     1.90100
O1150       O  0.46709815  0.82750836  0.86810429    -0.74500
O1151       O  0.38620687  0.77382597  0.85438622    -0.74300
O1152       O  0.41187429  0.81521508  0.90094040    -0.80000
O1153       O  0.34557723  0.80630127  0.83545865    -0.78200
O1154       O  0.40271103  0.84339183  0.84550957    -1.14300
O1155       O  0.34822216  0.86726308  0.81126552    -0.73500
C1156       C  0.36697117  0.87016467  0.78769215     0.97200
C1157       C  0.47566367  0.85894887  0.87095679     0.93600
Al1158     Al  0.42417363  0.80526099  0.85930923     1.55600
O1159       O  0.40188916  0.91476099  0.83882373    -0.78200
C1160       C  0.35684885  0.77686910  0.84227929     0.97700
C1161       C  0.45684137  0.81198847  0.80115758     0.92600
O1162       O  0.45749714  0.84415098  0.80616008    -0.83500
O1163       O  0.19070150  0.57419912  0.87959828    -0.82900
C1164       C  0.16878482  0.67139545  0.78272444     0.96400
O1165       O  0.15332581  0.64301926  0.78662695    -0.72100
O1166       O  0.19782211  0.59220183  0.79117290    -0.75600
Al1167     Al  0.16012574  0.60602402  0.81537792     1.49000
C1168       C  0.22345970  0.57539655  0.80093804     0.91700
O1169       O  0.25505765  0.63921152  0.84792145    -0.81900
O1170       O  0.17151780  0.66958343  0.88809678    -0.75400
Al1171     Al  0.22040230  0.60825481  0.86246674     1.90100
O1172       O  0.22563707  0.68722388  0.85274645    -0.74500
O1173       O  0.13063430  0.67291834  0.84079881    -0.74300
O1174       O  0.18688426  0.68442823  0.80385986    -0.80000
O1175       O  0.11931480  0.61753952  0.83715238    -0.78200
O1176       O  0.18680068  0.62953679  0.84139155    -1.14300
O1177       O  0.16082448  0.56363694  0.83776982    -0.73500
C1178       C  0.17135855  0.55450105  0.86411071     0.97200
C1179       C  0.25361560  0.67184327  0.84828997     0.93600
Al1180     Al  0.17947037  0.67472093  0.84610902     1.55600
O1181       O  0.23300749  0.57759220  0.82897602    -0.78200
C1182       C  0.10936030  0.64828775  0.84168014     0.97700
C1183       C  0.18887076  0.65390464  0.90825363     0.92600
O1184       O  0.21333482  0.63406243  0.90045870    -0.83500
C1185       C  0.33956311  0.71678128  0.85708918    -0.10300
C1186       C  0.33401033  0.74632602  0.83846504     0.05900
C1187       C  0.30385456  0.74782564  0.82004586    -0.04100
C1188       C  0.27948531  0.72161424  0.82220769    -0.08500
C1189       C  0.28388102  0.69362742  0.84245723     0.05000
C1190       C  0.31462827  0.69066710  0.85940031    -0.03500
Br1191     Br  0.32168275  0.65417681  0.88890193    -0.03200
H1192       H  0.36220601  0.71511997  0.87165103     0.08900
H1193       H  0.25585660  0.72405395  0.80905051     0.06900
Br1194     Br  0.29225035  0.78540540  0.79265065    -0.03700
C1195       C  0.68245216  0.71980004  0.66781107    -0.10300
C1196       C  0.69019727  0.75118248  0.68309451     0.05900
C1197       C  0.72232178  0.75406937  0.69843318    -0.04100
C1198       C  0.74692485  0.72819377  0.69478273    -0.08500
C1199       C  0.74032404  0.69848310  0.67709844     0.05000
C1200       C  0.70709946  0.69334697  0.66504797    -0.03500
Br1201     Br  0.69505011  0.65237555  0.64236678    -0.03200
H1202       H  0.65781189  0.71647154  0.65651472     0.08900
H1203       H  0.77203059  0.73183300  0.70518595     0.06900
Br1204     Br  0.73570545  0.79256306  0.72419948    -0.03700
C1205       C  0.50273766  0.81307762  0.72526828    -0.10300
C1206       C  0.53367244  0.79731393  0.73359364     0.05900
C1207       C  0.53522879  0.77790863  0.76119046    -0.04100
C1208       C  0.50723027  0.77859866  0.78178437    -0.08500
C1209       C  0.47825899  0.79929802  0.77535141     0.05000
C1210       C  0.47595596  0.81561857  0.74611031    -0.03500
Br1211     Br  0.44072197  0.84762566  0.73444699    -0.03200
H1212       H  0.50115837  0.82785518  0.70391219     0.08900
H1213       H  0.50971257  0.76612672  0.80416179     0.06900
Br1214     Br  0.57562603  0.75297017  0.77281702    -0.03700
C1215       C  0.71001104  0.34902460  0.87010382    -0.10300
C1216       C  0.73209865  0.35205834  0.84470682     0.05900
C1217       C  0.72723888  0.32983650  0.81920260    -0.04100
C1218       C  0.70185078  0.30426111  0.81977561    -0.08500
C1219       C  0.68072266  0.29999368  0.84566869     0.05000
C1220       C  0.68456161  0.32319930  0.87086816    -0.03500
Br1221     Br  0.65909111  0.31819784  0.90853186    -0.03200
H1222       H  0.71399850  0.36530838  0.89024444     0.08900
H1223       H  0.69932820  0.28685314  0.80019506     0.06900
Br1224     Br  0.75528451  0.33259781  0.78325363    -0.03700
C1225       C  0.77792523  0.49220301  0.74880278    -0.10300
C1226       C  0.78126306  0.49917811  0.78052990     0.05900
C1227       C  0.78125316  0.53403785  0.79054161    -0.04100
C1228       C  0.78383473  0.56072468  0.76876928    -0.08500
C1229       C  0.78498954  0.55339107  0.73699410     0.05000
C1230       C  0.77906050  0.51898706  0.72699887    -0.03500
Br1231     Br  0.77757486  0.50577904  0.68412495    -0.03200
H1232       H  0.77747337  0.46556818  0.74080724     0.08900
H1233       H  0.78757487  0.58709210  0.77678053     0.06900
Br1234     Br  0.78286003  0.54694572  0.83340439    -0.03700
C1235       C  0.24021979  0.52504941  0.72838219    -0.10300
C1236       C  0.23913203  0.49133145  0.74049089     0.05900
C1237       C  0.24297918  0.48659733  0.77265103    -0.04100
C1238       C  0.24339306  0.51546677  0.79230717    -0.08500
C1239       C  0.23852574  0.54899731  0.78033284     0.05000
C1240       C  0.23920400  0.55380205  0.74798765    -0.03500
Br1241     Br  0.23473696  0.59862000  0.72920677    -0.03200
H1242       H  0.23750048  0.52916550  0.70365779     0.08900
H1243       H  0.24323077  0.51126798  0.81712119     0.06900
Br1244     Br  0.24435213  0.44136453  0.79095460    -0.03700
C1245       C  0.33727265  0.32175891  0.65901928    -0.10300
C1246       C  0.33452445  0.29504810  0.68113454     0.05900
C1247       C  0.30765826  0.29677119  0.70295840    -0.04100
C1248       C  0.28215477  0.32197147  0.69984287    -0.08500
C1249       C  0.28358824  0.34698163  0.67641078     0.05000
C1250       C  0.31223075  0.34782615  0.65676234    -0.03500
Br1251     Br  0.31652644  0.38185684  0.62469909    -0.03200
H1252       H  0.35785891  0.32135260  0.64227300     0.08900
H1253       H  0.26049870  0.32153425  0.71541264     0.06900
Br1254     Br  0.30400907  0.26595081  0.73773066    -0.03700
C1255       C  0.47226077  0.25495827  0.76887450    -0.10300
C1256       C  0.48120510  0.25172229  0.73766188     0.05900
C1257       C  0.51580389  0.25506241  0.72902251    -0.04100
C1258       C  0.54124816  0.25707116  0.75184015    -0.08500
C1259       C  0.53261761  0.25589779  0.78323395     0.05000
C1260       C  0.49776649  0.25739003  0.79167584    -0.03500
Br1261     Br  0.48391376  0.25700048  0.83419764    -0.03200
H1262       H  0.44571134  0.25212090  0.77574967     0.08900
H1263       H  0.56782127  0.25545099  0.74503052     0.06900
Br1264     Br  0.52995678  0.25107605  0.68670065    -0.03700
C1265       C  0.62848950  0.03140183  0.88108867    -0.10300
C1266       C  0.66329018  0.02199905  0.88357726     0.05900
C1267       C  0.68841051  0.04646380  0.87500138    -0.04100
C1268       C  0.67856900  0.07965243  0.86510808    -0.08500
C1269       C  0.64386345  0.08921711  0.86297651     0.05000
C1270       C  0.61863149  0.06446086  0.87058658    -0.03500
Br1271     Br  0.57055773  0.07524889  0.86962983    -0.03200
H1272       H  0.60884764  0.01313620  0.88795567     0.08900
H1273       H  0.69827138  0.09833785  0.85935759     0.06900
Br1274     Br  0.73664116  0.03737825  0.87899083    -0.03700
C1275       C  0.68378948  0.84771384  0.53334517    -0.10300
C1276       C  0.65614422  0.86095745  0.51613195     0.05900
C1277       C  0.62311545  0.86087366  0.52929075    -0.04100
C1278       C  0.61868701  0.84947577  0.55969157    -0.08500
C1279       C  0.64659115  0.83770251  0.57749936     0.05000
C1280       C  0.67929043  0.83581905  0.56366029    -0.03500
Br1281     Br  0.71867819  0.81691662  0.58461085    -0.03200
H1282       H  0.70928137  0.84787987  0.52366693     0.08900
H1283       H  0.59345315  0.85128855  0.56985621     0.06900
Br1284     Br  0.58290945  0.87573480  0.00689826    -0.03700
C1285       C  0.69020168  0.90438330  0.77538222    -0.10300
C1286       C  0.67361767  0.87379841  0.76658282     0.05900
C1287       C  0.67075095  0.84640300  0.78770417    -0.04100
C1288       C  0.68177723  0.85083331  0.81814103    -0.08500
C1289       C  0.69578717  0.88251069  0.82803495     0.05000
C1290       C  0.70130849  0.90908068  0.80594077    -0.03500
Br1291     Br  0.72042961  0.95357765  0.81594274    -0.03200
H1292       H  0.69276574  0.92538722  0.75888556     0.08900
H1293       H  0.67822730  0.82978513  0.83442023     0.06900
Br1294     Br  0.65177630  0.80260261  0.77583904    -0.03700
C1295       C  0.54798755  0.90328257  0.91520425    -0.10300
C1296       C  0.57632134  0.88330408  0.90585552     0.05900
C1297       C  0.57057605  0.85417459  0.88658248    -0.04100
C1298       C  0.53746018  0.84661555  0.87620992    -0.08500
C1299       C  0.50939431  0.86713244  0.88480859     0.05000
C1300       C  0.51465657  0.89501838  0.90531636    -0.03500
Br1301     Br  0.47706504  0.92002284  0.92302051    -0.03200
H1302       H  0.55165846  0.92484210  0.93095713     0.08900
H1303       H  0.53372433  0.82489806  0.86061425     0.06900
Br1304     Br  0.60649518  0.82433155  0.87188114    -0.03700
C1305       C  0.02723847  0.69725809  0.85923577    -0.10300
C1306       C  0.00844090  0.67219278  0.87554005     0.05900
C1307       C  0.02090784  0.63757968  0.87589690    -0.04100
C1308       C  0.05307594  0.62997094  0.86325291    -0.08500
C1309       C  0.07306384  0.65585321  0.84940770     0.05000
C1310       C  0.05880601  0.68933027  0.84579362    -0.03500
Br1311     Br  0.08040723  0.72543108  0.82222313    -0.03200
H1312       H  0.01765547  0.72354295  0.85726817     0.08900
H1313       H  0.06308242  0.60385698  0.86541298     0.06900
Br1314     Br  0.99659852  0.59911689  0.89369132    -0.03700
C1315       C  0.81708368  0.85756554  0.91558297    -0.10300
C1316       C  0.78772890  0.85170987  0.93355648     0.05900
C1317       C  0.78664793  0.82183423  0.95233705    -0.04100
C1318       C  0.81312218  0.79753877  0.95132098    -0.08500
C1319       C  0.84093357  0.80133466  0.93105170     0.05000
C1320       C  0.84348948  0.83264299  0.91393654    -0.03500
Br1321     Br  0.88017228  0.84192241  0.88564329    -0.03200
H1322       H  0.81827804  0.88030710  0.90090433     0.08900
H1323       H  0.81077545  0.77437952  0.96535336     0.06900
Br1324     Br  0.74881584  0.81133838  0.97882287    -0.03700
C1325       C  0.83363608  0.68805143  0.52385220    -0.10300
C1326       C  0.85993198  0.66707688  0.51189846     0.05900
C1327       C  0.87417955  0.64073271  0.53067625    -0.04100
C1328       C  0.86332322  0.63689776  0.56123032    -0.08500
C1329       C  0.83829571  0.65885080  0.57358738     0.05000
C1330       C  0.82294018  0.68423543  0.55465679    -0.03500
Br1331     Br  0.78873466  0.71515969  0.57052362    -0.03200
H1332       H  0.82060238  0.70560291  0.00876598     0.08900
H1333       H  0.87502916  0.61712593  0.57567853     0.06900
Br1334     Br  0.90812704  0.60877068  0.51573407    -0.03700
C1335       C  0.89605546  0.70085553  0.77075057    -0.10300
C1336       C  0.86213569  0.69486763  0.76157816     0.05900
C1337       C  0.83533261  0.70246097  0.78205142    -0.04100
C1338       C  0.84298075  0.71344080  0.81221474    -0.08500
C1339       C  0.87722559  0.71733301  0.82231488     0.05000
C1340       C  0.90391388  0.71254949  0.80050340    -0.03500
Br1341     Br  0.95194128  0.71856518  0.80939922    -0.03200
H1342       H  0.91677059  0.69505564  0.75494109     0.08900
H1343       H  0.82203629  0.71729989  0.82823498     0.06900
Br1344     Br  0.78831395  0.69447893  0.77093457    -0.03700
C1345       C  0.86804211  0.55060801  0.85640315    -0.10300
C1346       C  0.85819511  0.52464585  0.87754823     0.05900
C1347       C  0.85767710  0.53279453  0.90946218    -0.04100
C1348       C  0.86628615  0.56633683  0.91931697    -0.08500
C1349       C  0.87459757  0.59234346  0.89791174     0.05000
C1350       C  0.87565781  0.58423133  0.86623136    -0.03500
Br1351     Br  0.88833064  0.61784824  0.83552102    -0.03200
H1352       H  0.86880504  0.54512223  0.83181515     0.08900
H1353       H  0.86585367  0.57236185  0.94381976     0.06900
Br1354     Br  0.84645800  0.49949156  0.94087815    -0.03700
C1355       C  0.02375730  0.40489554  0.63323837    -0.10300
C1356       C  0.00803739  0.37309243  0.64061801     0.05900
C1357       C  0.02467074  0.35098018  0.66214333    -0.04100
C1358       C  0.05705799  0.35972540  0.67382135    -0.08500
C1359       C  0.07343353  0.39059522  0.66520541     0.05000
C1360       C  0.05605246  0.41379013  0.64529431    -0.03500
Br1361     Br  0.07627344  0.45639287  0.63134275    -0.03200
H1362       H  0.01159345  0.42239970  0.61692227     0.08900
H1363       H  0.06975734  0.34199647  0.68962816     0.06900
Br1364     Br  0.00489219  0.30869794  0.67736068    -0.03700
C1365       C  0.81430407  0.38259357  0.96332267    -0.10300
C1366       C  0.83882755  0.38917539  0.94044231     0.05900
C1367       C  0.87348884  0.39248495  0.94910699    -0.04100
C1368       C  0.88349618  0.38681817  0.97954974    -0.08500
C1369       C  0.85955012  0.37864236  0.50257874     0.05000
C1370       C  0.82425698  0.37743124  0.99430918    -0.03500
Br1371     Br  0.78824246  0.36850851  0.52340938    -0.03200
H1372       H  0.78744689  0.38074950  0.95697003     0.08900
H1373       H  0.91049520  0.38936725  0.48521207     0.06900
Br1374     Br  0.90841685  0.40741922  0.92111408    -0.03700
C1375       C  0.89869233  0.33966067  0.71348066    -0.10300
C1376       C  0.87162258  0.33249706  0.69291470     0.05900
C1377       C  0.83750220  0.33418883  0.70381793    -0.04100
C1378       C  0.83116197  0.34665055  0.73359363    -0.08500
C1379       C  0.85819424  0.35640040  0.75307597     0.05000
C1380       C  0.89224209  0.35153396  0.74330273    -0.03500
Br1381     Br  0.93102097  0.36172963  0.76930694    -0.03200
H1382       H  0.92509422  0.33795862  0.70588658     0.08900
H1383       H  0.80499720  0.35055606  0.74078890     0.06900
Br1384     Br  0.79838930  0.32023780  0.67959107    -0.03700
C1385       C  0.85988071  0.51707618  0.60821959    -0.10300
C1386       C  0.86074907  0.52329135  0.64031126     0.05900
C1387       C  0.86936688  0.49545296  0.66044846    -0.04100
C1388       C  0.87551978  0.46246132  0.64835065    -0.08500
C1389       C  0.87448667  0.45642387  0.61646192     0.05000
C1390       C  0.86713543  0.48410753  0.59620457    -0.03500
Br1391     Br  0.86487684  0.47773674  0.55215666    -0.03200
H1392       H  0.85351216  0.53792280  0.59237995     0.08900
H1393       H  0.88149094  0.44130052  0.66400874     0.06900
Br1394     Br  0.87201949  0.49928827  0.70484393    -0.03700
C1395       C  0.73439946  0.03129056  0.97987881    -0.10300
C1396       C  0.73062590  0.99720999  0.99068480     0.05900
C1397       C  0.73186583  0.99061020  0.52268359    -0.04100
C1398       C  0.73336721  0.01833596  0.54346215    -0.08500
C1399       C  0.73213816  0.05263490  0.53262465     0.05000
C1400       C  0.73444458  0.05909948  0.50063190    -0.03500
Br1401     Br  0.73390574  0.10533991  0.98416715    -0.03200
H1402       H  0.73335497  0.03660973  0.95525302     0.08900
H1403       H  0.73137271  0.01307688  0.56804204     0.06900
Br1404     Br  0.72800777  0.94443273  0.53891743    -0.03700
C1405       C  0.69010049  0.00648631  0.64818952    -0.10300
C1406       C  0.66335173  0.02714981  0.63659360     0.05900
C1407       C  0.62951433  0.01416407  0.63676059    -0.04100
C1408       C  0.62313307  0.98075119  0.64795533    -0.08500
C1409       C  0.65015438  0.95959948  0.65818566     0.05000
C1410       C  0.68382334  0.97278588  0.65857678    -0.03500
Br1411     Br  0.72200481  0.94605365  0.67354528    -0.03200
H1412       H  0.71620747  0.01610671  0.64805895     0.08900
H1413       H  0.59712346  0.97085783  0.64782360     0.06900
Br1414     Br  0.59105340  0.04097624  0.62248545    -0.03700
C1415       C  0.83442051  0.22561731  0.61529441    -0.10300
C1416       C  0.83687966  0.24788378  0.58958547     0.05900
C1417       C  0.81463749  0.24259504  0.56415394    -0.04100
C1418       C  0.78885061  0.21742979  0.56590392    -0.08500
C1419       C  0.78481553  0.19712953  0.59251475     0.05000
C1420       C  0.80855749  0.20049838  0.61694334    -0.03500
Br1421     Br  0.80445470  0.17382381  0.65423933    -0.03200
H1422       H  0.85120344  0.22925159  0.63510245     0.08900
H1423       H  0.77127073  0.21427890  0.54673951     0.06900
Br1424     Br  0.81829851  0.26886003  0.52655159    -0.03700
C1425       C  0.66668290  0.22078054  0.95928803    -0.10300
C1426       C  0.63741750  0.20798736  0.94425461     0.05900
C1427       C  0.61504899  0.18577488  0.96016126    -0.04100
C1428       C  0.62252565  0.17607285  0.49038880    -0.08500
C1429       C  0.65244777  0.18768649  0.50540900     0.05000
C1430       C  0.67427489  0.21113950  0.98978869    -0.03500
Br1431     Br  0.71548320  0.22956948  0.00746969    -0.03200
H1432       H  0.68404257  0.23779931  0.94701072     0.08900
H1433       H  0.60522224  0.15831400  0.50185978     0.06900
Br1434     Br  0.57614231  0.16412318  0.94081027    -0.03700
C1435       C  0.68218573  0.14610135  0.74698676    -0.10300
C1436       C  0.66446764  0.17634485  0.75500626     0.05900
C1437       C  0.66111946  0.20323727  0.73335451    -0.04100
C1438       C  0.67299029  0.19856135  0.70324128    -0.08500
C1439       C  0.68868661  0.16731256  0.69422905     0.05000
C1440       C  0.69436323  0.14129306  0.71684227    -0.03500
Br1441     Br  0.71554484  0.09743774  0.70801339    -0.03200
H1442       H  0.68519024  0.12551060  0.76386444     0.08900
H1443       H  0.66909946  0.21919617  0.68655721     0.06900
Br1444     Br  0.64109693  0.24697583  0.74420537    -0.03700
C1445       C  0.51961388  0.18850793  0.61291303    -0.10300
C1446       C  0.50821009  0.16991908  0.63889851     0.05900
C1447       C  0.52997536  0.14440843  0.65201922    -0.04100
C1448       C  0.56220574  0.13813382  0.63909819    -0.08500
C1449       C  0.57375561  0.15734889  0.61369623     0.05000
C1450       C  0.55207088  0.18247608  0.60032746    -0.03500
Br1451     Br  0.56505515  0.20829070  0.56424132    -0.03200
H1452       H  0.50328165  0.20806053  0.60244851     0.08900
H1453       H  0.57897929  0.11910128  0.64977438     0.06900
Br1454     Br  0.51920913  0.11960930  0.68928877    -0.03700
C1455       C  0.33318803  0.03761817  0.64899379    -0.10300
C1456       C  0.35868563  0.01959939  0.63270149     0.05900
C1457       C  0.39122422  0.03517162  0.62882218    -0.04100
C1458       C  0.39765412  0.06789061  0.64150538    -0.08500
C1459       C  0.37180015  0.08609907  0.65693276     0.05000
C1460       C  0.33929220  0.07089010  0.66053054    -0.03500
Br1461     Br  0.30244542  0.09449248  0.68098885    -0.03200
H1462       H  0.30795961  0.02631093  0.65178270     0.08900
H1463       H  0.42263250  0.07968833  0.63844507     0.06900
Br1464     Br  0.42806172  0.01351312  0.60663148    -0.03700
C1465       C  0.34163699  0.83902779  0.98982739    -0.10300
C1466       C  0.36921123  0.85348162  0.50630315     0.05900
C1467       C  0.40206155  0.85364596  0.49274281    -0.04100
C1468       C  0.40640328  0.84138785  0.96257317    -0.08500
C1469       C  0.37837038  0.82939313  0.94511545     0.05000
C1470       C  0.34583923  0.82731328  0.95937146    -0.03500
Br1471     Br  0.30609290  0.80918001  0.93852246    -0.03200
H1472       H  0.31636005  0.83836289  0.00014377     0.08900
H1473       H  0.43156272  0.84316510  0.95212951     0.06900
Br1474     Br  0.44198503  0.87063065  0.51405708    -0.03700
C1475       C  0.34359451  0.84908418  0.70537318    -0.10300
C1476       C  0.33254344  0.88158732  0.69451699     0.05900
C1477       C  0.32897815  0.90922965  0.71584403    -0.04100
C1478       C  0.33854247  0.90445485  0.74679536    -0.08500
C1479       C  0.35133978  0.87254989  0.75694519     0.05000
C1480       C  0.35263009  0.84432356  0.73640019    -0.03500
Br1481     Br  0.36792749  0.79920027  0.74944108    -0.03200
H1482       H  0.34603239  0.82748611  0.68948466     0.08900
H1483       H  0.33757132  0.92619760  0.76267197     0.06900
Br1484     Br  0.31474888  0.95505295  0.70414634    -0.03700
C1485       C  0.49499203  0.90121490  0.65165282    -0.10300
C1486       C  0.51515849  0.87509031  0.63802810     0.05900
C1487       C  0.50210152  0.85730119  0.61190360    -0.04100
C1488       C  0.46946236  0.86525399  0.60047000    -0.08500
C1489       C  0.44925922  0.89088305  0.61432845     0.05000
C1490       C  0.46212006  0.90891032  0.64023620    -0.03500
Br1491     Br  0.43423178  0.94097256  0.66302096    -0.03200
H1492       H  0.50409364  0.91450006  0.67220482     0.08900
H1493       H  0.45959631  0.85099601  0.58075932     0.06900
Br1494     Br  0.52729774  0.82214843  0.59024353    -0.03700
C1495       C  0.00104501  0.74564819  0.54118152    -0.10300
C1496       C  0.03596833  0.74814305  0.53393722     0.05900
C1497       C  0.04574604  0.75512055  0.50328339    -0.04100
C1498       C  0.02113482  0.75528453  0.97956375    -0.08500
C1499       C  0.98651887  0.74914325  0.98644256     0.05000
C1500       C  0.97618059  0.74619415  0.51779574    -0.03500
Br1501     Br  0.92928743  0.73798379  0.52890965    -0.03200
H1502       H  0.99334577  0.73996419  0.56472256     0.08900
H1503       H  0.02924632  0.75692059  0.95564831     0.06900
Br1504     Br  0.09337206  0.75909745  0.99207457    -0.03700
C1505       C  0.99803820  0.69691786  0.65771654    -0.10300
C1506       C  0.01565638  0.67201802  0.64017262     0.05900
C1507       C  0.00103188  0.63847492  0.63696015    -0.04100
C1508       C  0.96855721  0.63174602  0.64910525    -0.08500
C1509       C  0.95009209  0.65752139  0.66464659     0.05000
C1510       C  0.96582266  0.68990202  0.67017635    -0.03500
Br1511     Br  0.94530501  0.72547902  0.69515279    -0.03200
H1512       H  0.00906178  0.72236896  0.66137758     0.08900
H1513       H  0.95701728  0.60657323  0.64511984     0.06900
Br1514     Br  0.02206881  0.60066415  0.61498481    -0.03700
C1515       C  0.18461651  0.82375699  0.60609190    -0.10300
C1516       C  0.18821695  0.79477107  0.58650793     0.05900
C1517       C  0.21722680  0.79311044  0.56688979    -0.04100
C1518       C  0.24287356  0.81828103  0.56920206    -0.08500
C1519       C  0.24025621  0.84576042  0.59026435     0.05000
C1520       C  0.21034477  0.84906299  0.60814640    -0.03500
Br1521     Br  0.20534390  0.88505118  0.63847577    -0.03200
H1522       H  0.16280553  0.82564878  0.62144105     0.08900
H1523       H  0.26564157  0.81580619  0.55505298     0.06900
Br1524     Br  0.22439264  0.75706902  0.53678027    -0.03700
C1525       C  0.13818140  0.67456173  0.98030048    -0.10300
C1526       C  0.16162378  0.66723288  0.50413750     0.05900
C1527       C  0.19474347  0.65529958  0.49619135    -0.04100
C1528       C  0.20343373  0.65123174  0.96480484    -0.08500
C1529       C  0.17962405  0.65882381  0.94113661     0.05000
C1530       C  0.14649222  0.67046172  0.94944159    -0.03500
Br1531     Br  0.10940888  0.67960582  0.92097837    -0.03200
H1532       H  0.11246271  0.68330957  0.98558187     0.08900
H1533       H  0.22883987  0.64199779  0.95894274     0.06900
Br1534     Br  0.22866509  0.64260637  0.52650622    -0.03700
C1535       C  0.18295883  0.70992606  0.70395277    -0.10300
C1536       C  0.14877735  0.71437364  0.69397088     0.05900
C1537       C  0.12194827  0.70990811  0.71563398    -0.04100
C1538       C  0.12951964  0.69701595  0.74494964    -0.08500
C1539       C  0.16332344  0.69001938  0.75378920     0.05000
C1540       C  0.19037672  0.69829472  0.73385831    -0.03500
Br1541     Br  0.23742540  0.69136388  0.74547209    -0.03200
H1542       H  0.20398280  0.71401978  0.68806544     0.08900
H1543       H  0.10872598  0.69145562  0.76075682     0.06900
Br1544     Br  0.07417618  0.71843458  0.70719906    -0.03700
C1545       C  0.16369266  0.52830385  0.61314988    -0.10300
C1546       C  0.16179032  0.52227842  0.64522709     0.05900
C1547       C  0.15147341  0.54996225  0.66480505    -0.04100
C1548       C  0.14477989  0.58267325  0.65217446    -0.08500
C1549       C  0.14712353  0.58848517  0.62029125     0.05000
C1550       C  0.15612274  0.56091001  0.60061343    -0.03500
Br1551     Br  0.16049417  0.56703998  0.55670837    -0.03200
H1552       H  0.17130652  0.50760647  0.59766927     0.08900
H1553       H  0.13753681  0.60379338  0.66737851     0.06900
Br1554     Br  0.14689273  0.54624244  0.70903593    -0.03700
C1555       C  0.38426741  0.01415919  0.88121949    -0.10300
C1556       C  0.34962155  0.02222933  0.88552153     0.05900
C1557       C  0.32454119  0.99674485  0.87992900    -0.04100
C1558       C  0.33464896  0.96324880  0.87161865    -0.08500
C1559       C  0.36944090  0.95506679  0.86747693     0.05000
C1560       C  0.39430614  0.98131419  0.87128075    -0.03500
Br1561     Br  0.44237196  0.97423166  0.86434489    -0.03200
H1562       H  0.40370004  0.03346269  0.88595216     0.08900
H1563       H  0.31519588  0.94358184  0.86805990     0.06900
Br1564     Br  0.27646654  0.00560929  0.88501460    -0.03700
C1565       C  0.27997641  0.01411362  0.97889086    -0.10300
C1566       C  0.28375520  0.04812544  0.99005537     0.05900
C1567       C  0.28469073  0.05385793  0.52221574    -0.04100
C1568       C  0.28609577  0.02561262  0.54240475    -0.08500
C1569       C  0.28765455  0.99162292  0.53084162     0.05000
C1570       C  0.28252587  0.98580115  0.49903692    -0.03500
Br1571     Br  0.28150132  0.93982293  0.48208675    -0.03200
H1572       H  0.27914567  0.00932443  0.95422763     0.08900
H1573       H  0.28975934  0.03039759  0.56692868     0.06900
Br1574     Br  0.28803184  0.09974300  0.03932135    -0.03700
C1575       C  0.33326543  0.19375017  0.53438237    -0.10300
C1576       C  0.36092241  0.18202757  0.51658944     0.05900
C1577       C  0.39425696  0.18265535  0.52927467    -0.04100
C1578       C  0.39928328  0.19373276  0.55964623    -0.08500
C1579       C  0.37152738  0.20382590  0.57822103     0.05000
C1580       C  0.33816355  0.20430491  0.56511050    -0.03500
Br1581     Br  0.29818283  0.21894535  0.58746139    -0.03200
H1582       H  0.30755570  0.19344711  0.52471862     0.08900
H1583       H  0.42507732  0.19314666  0.56910460     0.06900
Br1584     Br  0.43412462  0.16903299  0.00616094    -0.03700
C1585       C  0.33040531  0.13204481  0.80982402    -0.10300
C1586       C  0.32637176  0.16163348  0.82840225     0.05900
C1587       C  0.33402859  0.19455413  0.81611289    -0.04100
C1588       C  0.34691782  0.19731121  0.78614254    -0.08500
C1589       C  0.35214332  0.16768779  0.76811123     0.05000
C1590       C  0.34348713  0.13487171  0.77984499    -0.03500
Br1591     Br  0.35160415  0.09326163  0.75666493    -0.03200
H1592       H  0.32535166  0.10653779  0.81928422     0.08900
H1593       H  0.35362069  0.22259660  0.77710807     0.06900
Br1594     Br  0.32731391  0.23648304  0.83925473    -0.03700
C1595       C  0.48863547  0.14508461  0.87168202    -0.10300
C1596       C  0.50580725  0.17463379  0.88284585     0.05900
C1597       C  0.49001862  0.19457726  0.90636469    -0.04100
C1598       C  0.45790073  0.18489915  0.91774041    -0.08500
C1599       C  0.44069093  0.15563131  0.90630633     0.05000
C1600       C  0.45628638  0.13574239  0.88288101    -0.03500
Br1601     Br  0.43318026  0.09801418  0.86280142    -0.03200
H1602       H  0.49976793  0.12987936  0.85317828     0.08900
H1603       H  0.44618398  0.20051383  0.93568011     0.06900
Br1604     Br  0.51058423  0.23495136  0.92477510    -0.03700
C1605       C  0.95241553  0.35414033  0.85665690    -0.10300
C1606       C  0.94450130  0.38921027  0.85130296     0.05900
C1607       C  0.97031102  0.41426580  0.85682144    -0.04100
C1608       C  0.00206719  0.40389521  0.86919262    -0.08500
C1609       C  0.00897630  0.36892448  0.87635573     0.05000
C1610       C  0.98373399  0.34382379  0.86920540    -0.03500
Br1611     Br  0.98796090  0.29506251  0.87793204    -0.03200
H1612       H  0.93343968  0.33419427  0.85227119     0.08900
H1613       H  0.02117690  0.42358641  0.87403934     0.06900
Br1614     Br  0.96404407  0.46299085  0.84935150    -0.03700
C1615       C  0.99705774  0.29193587  0.97902365    -0.10300
C1616       C  0.03214259  0.29526548  0.98572191     0.05900
C1617       C  0.04355456  0.29391171  0.51671645    -0.04100
C1618       C  0.01951493  0.29375787  0.54061638    -0.08500
C1619       C  0.98428032  0.29418441  0.53389767     0.05000
C1620       C  0.97313732  0.29080806  0.50305444    -0.03500
Br1621     Br  0.92511306  0.29006166  0.99267855    -0.03200
H1622       H  0.98814184  0.29329905  0.95524791     0.08900
H1623       H  0.02828558  0.29671541  0.56432683     0.06900
Br1624     Br  0.09138523  0.29691259  0.52706579    -0.03700
C1625       C  0.17764598  0.21973525  0.91317831    -0.10300
C1626       C  0.18077865  0.24766306  0.93405751     0.05900
C1627       C  0.20863648  0.24764916  0.95522829    -0.04100
C1628       C  0.23365132  0.22172650  0.95349076    -0.08500
C1629       C  0.23157508  0.19530889  0.93128928     0.05000
C1630       C  0.20284984  0.19386556  0.91150614    -0.03500
Br1631     Br  0.19920420  0.15999804  0.87910457    -0.03200
H1632       H  0.15676764  0.21920573  0.89654160     0.08900
H1633       H  0.25569020  0.22293871  0.96885980     0.06900
Br1634     Br  0.21511260  0.28246323  0.98660234    -0.03700
C1635       C  0.18825671  0.37941767  0.52331079    -0.10300
C1636       C  0.15275466  0.38017005  0.51693510     0.05900
C1637       C  0.12986690  0.38648219  0.54181033    -0.04100
C1638       C  0.14258126  0.38958074  0.57185912    -0.08500
C1639       C  0.17777015  0.38771199  0.57823238     0.05000
C1640       C  0.20086227  0.38349482  0.55358476    -0.03500
Br1641     Br  0.24944321  0.38097523  0.56010845    -0.03200
H1642       H  0.20638074  0.37507872  0.50478091     0.08900
H1643       H  0.12463207  0.39381097  0.59060005     0.06900
Br1644     Br  0.08090742  0.39210415  0.53774905    -0.03700
C1645       C  0.17954883  0.33203973  0.81675028    -0.10300
C1646       C  0.14514002  0.32958706  0.82632509     0.05900
C1647       C  0.11874051  0.33472665  0.80403965    -0.04100
C1648       C  0.12715968  0.34525621  0.77420577    -0.08500
C1649       C  0.16127577  0.35022086  0.76555851     0.05000
C1650       C  0.18773853  0.34200392  0.78649686    -0.03500
Br1651     Br  0.23509746  0.34704374  0.77581551    -0.03200
H1652       H  0.20019763  0.32763460  0.83316676     0.08900
H1653       H  0.10673027  0.35118059  0.75789770     0.06900
Br1654     Br  0.07038323  0.33131740  0.81235244    -0.03700
C1655       C  0.14582700  0.45953288  0.86858723    -0.10300
C1656       C  0.14409806  0.45449916  0.90058519     0.05900
C1657       C  0.15172791  0.48218351  0.92069025    -0.04100
C1658       C  0.16056275  0.51459436  0.90846365    -0.08500
C1659       C  0.16159964  0.52000937  0.87627352     0.05000
C1660       C  0.15423730  0.49182092  0.85623785    -0.03500
Br1661     Br  0.15674343  0.49430850  0.81181317    -0.03200
H1662       H  0.14051105  0.43810257  0.85304297     0.08900
H1663       H  0.16661746  0.53562338  0.92419369     0.06900
Br1664     Br  0.15267730  0.47627100  0.96482347    -0.03700
loop_ 
_geom_bond_atom_site_label_1 
_geom_bond_atom_site_label_2 
_geom_bond_distance 
_geom_bond_site_symmetry_2 
_ccdc_geom_bond_type 
O1           C16   1.256       .  A
O1           Al9   1.868       .  S
C2           O12   1.257       .  A
C2            O3   1.269       .  A
C2          C814   1.482       .  S
O3           Al5   1.934       .  S
O4            C6   1.254       .  A
O4           Al5   1.882       .  S
Al5          O13   1.885       .  S
Al5          O15   1.942       .  S
Al5          O14   1.777       .  S
C6           O19   1.259       .  A
C6          C824   1.468       .  S
O7           C17   1.261       .  A
O7           Al9   1.897       .  S
O8           C21   1.262       .  A
O8          Al18   1.902       .  S
Al9          O22   1.917       .  S
Al9          O19   1.918       .  S
Al9          O14   1.779       .  S
O10          C17   1.264       .  A
O10         Al18   1.923       .  S
O11          C20   1.262       .  A
O11         Al18   1.922       .  S
O12         Al18   1.868       .  S
O13          C20   1.256       .  A
O14         Al18   1.782       .  S
O15          C16   1.270       .  A
C16        C1636   1.489       .  S
C17         C777   1.487       .  S
C20         C794   1.487       .  S
C21          O22   1.265       .  A
C21         C784   1.463       .  S
O23          C38   1.256       .  A
O23         Al31   1.894       .  S
C24          O34   1.260       .  A
C24          O25   1.262       .  A
C24        C1576   1.469       .  S
O25         Al27   1.910       .  S
O26          C28   1.262       .  A
O26         Al27   1.880       .  S
Al27         O35   1.904       .  S
Al27         O37   1.888       .  S
Al27         O36   1.777       .  S
C28          O41   1.267       .  A
C28         C734   1.469       .  S
O29          C39   1.258       .  A
O29         Al31   1.908       .  S
O30          C43   1.259       .  A
O30         Al40   1.869       .  S
Al31         O44   1.924       .  S
Al31         O41   1.929       .  S
Al31         O36   1.793       .  S
O32          C39   1.255       .  A
O32         Al40   1.888       .  S
O33          C42   1.263       .  A
O33         Al40   1.922       .  S
O34         Al40   1.899       .  S
O35          C42   1.261       .  A
O36         Al40   1.785       .  S
O37          C38   1.255       .  A
C38         C724   1.465       .  S
C39         C797   1.473       .  S
C42         C767   1.479       .  S
C43          O44   1.267       .  A
C43         C754   1.467       .  S
O45          C60   1.260       .  A
O45         Al53   1.852       .  S
C46          O56   1.256       .  A
C46          O47   1.265       .  A
C46         C704   1.477       .  S
O47         Al49   1.917       .  S
O48          C50   1.256       .  A
O48         Al49   1.894       .  S
Al49         O57   1.878       .  S
Al49         O59   1.940       .  S
Al49         O58   1.776       .  S
C50          O63   1.258       .  A
C50         C717   1.470       .  S
O51          C61   1.256       .  A
O51         Al53   1.875       .  S
O52          C65   1.261       .  A
O52         Al62   1.910       .  S
Al53         O66   1.913       .  S
Al53         O63   1.916       .  S
Al53         O58   1.772       .  S
O54          C61   1.272       .  A
O54         Al62   1.945       .  S
O55          C64   1.266       .  A
O55         Al62   1.935       .  S
O56         Al62   1.869       .  S
O57          C64   1.256       .  A
O58         Al62   1.782       .  S
O59          C60   1.267       .  A
C60         C694   1.481       .  S
C61         C674   1.485       .  S
C64         C684   1.489       .  S
C65          O66   1.262       .  A
C65         C664   1.466       .  S
O67          C82   1.259       .  A
O67         Al75   1.897       .  S
C68          O78   1.260       .  A
C68          O69   1.261       .  A
C68         C634   1.476       .  S
O69         Al71   1.914       .  S
O70          C72   1.264       .  A
O70         Al71   1.900       .  S
Al71         O79   1.902       .  S
Al71         O81   1.903       .  S
Al71         O80   1.781       .  S
C72          O85   1.264       .  A
C72         C737   1.469       .  S
O73          C83   1.261       .  A
O73         Al75   1.905       .  S
O74          C87   1.260       .  A
O74         Al84   1.887       .  S
Al75         O88   1.916       .  S
Al75         O85   1.915       .  S
Al75         O80   1.789       .  S
O76          C83   1.260       .  A
O76         Al84   1.900       .  S
O77          C86   1.263       .  A
O77         Al84   1.919       .  S
O78         Al84   1.903       .  S
O79          C86   1.261       .  A
O80         Al84   1.782       .  S
O81          C82   1.257       .  A
C82         C624   1.475   1_565  S
C83         C687   1.475       .  S
C86         C657   1.472       .  S
C87          O88   1.262       .  A
C87         C644   1.477       .  S
O89         C104   1.258       .  A
O89         Al97   1.898       .  S
C90         O100   1.259       .  A
C90          O91   1.261       .  A
C90         C597   1.478       .  S
O91         Al93   1.899       .  S
O92          C94   1.261       .  A
O92         Al93   1.880       .  S
Al93        O101   1.889       .  S
Al93        O103   1.901       .  S
Al93        O102   1.776       .  S
C94         O107   1.267       .  A
C94         C567   1.466       .  S
O95         C105   1.259       .  A
O95         Al97   1.904       .  S
O96         C109   1.260       .  A
O96        Al106   1.874       .  S
Al97        O110   1.923       .  S
Al97        O107   1.928       .  S
Al97        O102   1.789       .  S
O98         C105   1.260       .  A
O98        Al106   1.908       .  S
O99         C108   1.265       .  A
O99        Al106   1.931       .  S
O100       Al106   1.902       .  S
O101        C108   1.259       .  A
O102       Al106   1.784       .  S
O103        C104   1.256       .  A
C104        C574   1.472       .  S
C105        C587   1.473       .  S
C108        C617   1.471       .  S
C109        O110   1.265       .  A
C109        C607   1.480       .  S
O111        C126   1.261       .  A
O111       Al119   1.877       .  S
C112        O122   1.261       .  A
C112        O113   1.263       .  A
C112        C544   1.474       .  S
O113       Al115   1.910       .  S
O114        C116   1.258       .  A
O114       Al115   1.896       .  S
Al115       O123   1.896       .  S
Al115       O125   1.923       .  S
Al115       O124   1.780       .  S
C116        O129   1.259       .  A
C116        C557   1.472       .  S
O117        C127   1.262       .  A
O117       Al119   1.903       .  S
O118        C131   1.262       .  A
O118       Al128   1.907       .  S
Al119       O132   1.906       .  S
Al119       O129   1.915       .  S
Al119       O124   1.777       .  S
O120        C127   1.265       .  A
O120       Al128   1.929       .  S
O121        C130   1.263       .  A
O121       Al128   1.924       .  S
O122       Al128   1.880       .  S
O123        C130   1.260       .  A
O124       Al128   1.785       .  S
O125        C126   1.262       .  A
C126        C537   1.486       .  S
C127        C524   1.491   1_655  S
C130        C584   1.482       .  S
C131        O132   1.263       .  A
C131        C787   1.462       .  S
O133        C148   1.259       .  A
O133       Al141   1.875       .  S
C134        O144   1.258       .  A
C134        O135   1.266       .  A
C134        C507   1.486       .  S
O135       Al137   1.925       .  S
O136        C138   1.257       .  A
O136       Al137   1.898       .  S
Al137       O145   1.884       .  S
Al137       O147   1.937       .  S
Al137       O146   1.778       .  S
C138        O151   1.257       .  A
C138        C517   1.471       .  S
O139        C149   1.257       .  A
O139       Al141   1.886       .  S
O140        C153   1.262       .  A
O140       Al150   1.909       .  S
Al141       O154   1.907       .  S
Al141       O151   1.911       .  S
Al141       O146   1.780       .  S
O142        C149   1.269       .  A
O142       Al150   1.935       .  S
O143        C152   1.263       .  A
O143       Al150   1.936       .  S
O144       Al150   1.881       .  S
O145        C152   1.259       .  A
O146       Al150   1.789       .  S
O147        C148   1.267       .  A
C148       C1326   1.475       .  S
C149        C474   1.491   1_655  S
C152        C487   1.495       .  S
C153        O154   1.262       .  A
C153        C667   1.465       .  S
O155        C170   1.260       .  A
O155       Al163   1.912       .  S
C156        O166   1.261       .  A
C156        O157   1.262       .  A
C156       C1276   1.475       .  S
O157       Al159   1.913       .  S
O158        C160   1.261       .  A
O158       Al159   1.884       .  S
Al159       O167   1.906       .  S
Al159       O169   1.905       .  S
Al159       O168   1.787       .  S
C160        O173   1.262       .  A
C160        C564   1.465       .  S
O161        C171   1.261       .  A
O161       Al163   1.925       .  S
O162        C175   1.262       .  A
O162       Al172   1.878       .  S
Al163       O176   1.915       .  S
Al163       O173   1.908       .  S
Al163       O168   1.798       .  S
O164        C171   1.255       .  A
O164       Al172   1.890       .  S
O165        C174   1.259       .  A
O165       Al172   1.911       .  S
O166       Al172   1.901       .  S
O167        C174   1.261       .  A
O168       Al172   1.786       .  S
O169        C170   1.258       .  A
C170        C434   1.487   1_565  S
C171        C484   1.484       .  S
C174        C464   1.482       .  S
C175        O176   1.263       .  A
C175        C457   1.476       .  S
O177        C192   1.257       .  A
O177       Al185   1.885       .  S
C178        O188   1.261       .  A
C178        O179   1.263       .  A
C178        C747   1.479       .  S
O179       Al181   1.916       .  S
O180        C182   1.256       .  A
O180       Al181   1.879       .  S
Al181       O189   1.884       .  S
Al181       O191   1.909       .  S
Al181       O190   1.787       .  S
C182        O195   1.262       .  A
C182        C627   1.466       .  S
O183        C193   1.257       .  A
O183       Al185   1.894       .  S
O184        C197   1.263       .  A
O184       Al194   1.904       .  S
Al185       O198   1.909       .  S
Al185       O195   1.915       .  S
Al185       O190   1.782       .  S
O186        C193   1.262       .  A
O186       Al194   1.916       .  S
O187        C196   1.263       .  A
O187       Al194   1.929       .  S
O188       Al194   1.884       .  S
O189        C196   1.257       .  A
O190       Al194   1.790       .  S
O191        C192   1.259       .  A
C192        C757   1.460       .  S
C193        C614   1.481       .  S
C196        C414   1.486       .  S
C197        O198   1.264       .  A
C197        C424   1.464       .  S
O199        C214   1.262       .  A
O199       Al207   1.907       .  S
C200        O210   1.258       .  A
C200        O201   1.261       .  A
C200        C817   1.465       .  S
O201       Al203   1.907       .  S
O202        C204   1.263       .  A
O202       Al203   1.895       .  S
Al203       O211   1.904       .  S
Al203       O213   1.905       .  S
Al203       O212   1.776       .  S
C204        O217   1.268       .  A
C204        C404   1.473       .  S
O205        C215   1.260       .  A
O205       Al207   1.907       .  S
O206        C219   1.258       .  A
O206       Al216   1.870       .  S
Al207       O220   1.934       .  S
Al207       O217   1.929       .  S
Al207       O212   1.788       .  S
O208        C215   1.260       .  A
O208       Al216   1.901       .  S
O209        C218   1.266       .  A
O209       Al216   1.926       .  S
O210       Al216   1.903       .  S
O211        C218   1.262       .  A
O212       Al216   1.779       .  S
O213        C214   1.257       .  A
C214        C714   1.486       .  S
C215        C417   1.473       .  S
C218        C527   1.482       .  S
C219        O220   1.266       .  A
C219        C807   1.475       .  S
O221        C236   1.261       .  A
O221       Al229   1.911       .  S
C222        O232   1.261       .  A
C222        O223   1.260       .  A
C222        C547   1.463       .  S
O223       Al225   1.903       .  S
O224        C226   1.262       .  A
O224       Al225   1.887       .  S
Al225       O233   1.906       .  S
Al225       O235   1.899       .  S
Al225       O234   1.781       .  S
C226        O239   1.267       .  A
C226        C394   1.476       .  S
O227        C237   1.263       .  A
O227       Al229   1.923       .  S
O228        C241   1.258       .  A
O228       Al238   1.875       .  S
Al229       O242   1.931       .  S
Al229       O239   1.934       .  S
Al229       O234   1.791       .  S
O230        C237   1.260       .  A
O230       Al238   1.906       .  S
O231        C240   1.264       .  A
O231       Al238   1.908       .  S
O232       Al238   1.900       .  S
O233        C240   1.261       .  A
O234       Al238   1.779       .  S
O235        C236   1.259       .  A
C236        C514   1.486       .  S
C237        C384   1.482       .  S
C240        C774   1.490       .  S
C241        O242   1.265       .  A
C241        C534   1.472       .  S
O243        C258   1.260       .  A
O243       Al251   1.890       .  S
C244        O254   1.258       .  A
C244        O245   1.263       .  A
C244        C594   1.461       .  S
O245       Al247   1.913       .  S
O246        C248   1.259       .  A
O246       Al247   1.896       .  S
Al247       O255   1.896       .  S
Al247       O257   1.912       .  S
Al247       O256   1.788       .  S
C248        O261   1.262       .  A
C248        C437   1.486       .  S
O249        C259   1.262       .  A
O249       Al251   1.902       .  S
O250        C263   1.264       .  A
O250       Al260   1.913       .  S
Al251       O264   1.905       .  S
Al251       O261   1.927       .  S
Al251       O256   1.781       .  S
O252        C259   1.262       .  A
O252       Al260   1.918       .  S
O253        C262   1.262       .  A
O253       Al260   1.929       .  S
O254       Al260   1.875       .  S
O255        C262   1.259       .  A
O256       Al260   1.792       .  S
O257        C258   1.260       .  A
C258        C604   1.464       .  S
C259        C764   1.487       .  S
C262        C387   1.487       .  S
C263        O264   1.263       .  A
C263        C427   1.466       .  S
O265        C280   1.260       .  A
O265       Al273   1.883       .  S
C266        O276   1.260       .  A
C266        O267   1.260       .  A
C266        C447   1.479       .  S
O267       Al269   1.907       .  S
O268        C270   1.256       .  A
O268       Al269   1.885       .  S
Al269       O277   1.871       .  S
Al269       O279   1.915       .  S
Al269       O278   1.786       .  S
C270        O283   1.260       .  A
C270        C577   1.469       .  S
O271        C281   1.264       .  A
O271       Al273   1.901       .  S
O272        C285   1.263       .  A
O272       Al282   1.929       .  S
Al273       O286   1.888       .  S
Al273       O283   1.918       .  S
Al273       O278   1.779       .  S
O274        C281   1.266       .  A
O274       Al282   1.924       .  S
O275        C284   1.266       .  A
O275       Al282   1.935       .  S
O276       Al282   1.893       .  S
O277        C284   1.254       .  A
O278       Al282   1.791       .  S
O279        C280   1.261       .  A
C280        C454   1.459       .  S
C281        C654   1.482       .  S
C284        C364   1.490       .  S
C285        O286   1.261       .  A
C285        C374   1.475       .  S
O287        C302   1.264       .  A
O287       Al295   1.914       .  S
C288        O298   1.260       .  A
C288        O289   1.261       .  A
C288        C504   1.466       .  S
O289       Al291   1.908       .  S
O290        C292   1.262       .  A
O290       Al291   1.894       .  S
Al291       O299   1.899       .  S
Al291       O301   1.901       .  S
Al291       O300   1.777       .  S
C292        O305   1.263       .  A
C292        C397   1.478       .  S
O293        C303   1.261       .  A
O293       Al295   1.914       .  S
O294        C307   1.259       .  A
O294       Al304   1.885       .  S
Al295       O308   1.932       .  S
Al295       O305   1.922       .  S
Al295       O300   1.790       .  S
O296        C303   1.260       .  A
O296       Al304   1.896       .  S
O297        C306   1.260       .  A
O297       Al304   1.908       .  S
O298       Al304   1.904       .  S
O299        C306   1.261       .  A
O300       Al304   1.781       .  S
O301        C302   1.259       .  A
C302        C554   1.486       .  S
C303        C367   1.478       .  S
C306        C677   1.476       .  S
C307        O308   1.265       .  A
C307        C497   1.468       .  S
O309        C324   1.259       .  A
O309       Al317   1.879       .  S
C310        O320   1.265       .  A
C310        O311   1.263       .  A
C310        C637   1.480       .  S
O311       Al313   1.906       .  S
O312        C314   1.255       .  A
O312       Al313   1.889       .  S
Al313       O321   1.871       .  S
Al313       O323   1.913       .  S
Al313       O322   1.789       .  S
C314        O327   1.253       .  A
C314        C727   1.472       .  S
O315        C325   1.263       .  A
O315       Al317   1.910       .  S
O316        C329   1.269       .  A
O316       Al326   1.936       .  S
Al317       O330   1.895       .  S
Al317       O327   1.891       .  S
Al317       O322   1.780       .  S
O318        C325   1.264       .  A
O318       Al326   1.918       .  S
O319        C328   1.261       .  A
O319       Al326   1.925       .  S
O320       Al326   1.902       .  S
O321        C328   1.251       .  A
O322       Al326   1.792       .  S
O323        C324   1.261       .  A
C324        C647   1.461       .  S
C325        C467   1.476       .  S
C328        C354   1.486       .  S
C329        O330   1.259       .  A
C329        C377   1.479       .  S
O331        C346   1.261       .  A
O331       Al339   1.904       .  S
C332        O342   1.256       .  A
C332        O333   1.262       .  A
C332        C707   1.456       .  S
O333       Al335   1.909       .  S
O334        C336   1.261       .  A
O334       Al335   1.884       .  S
Al335       O343   1.904       .  S
Al335       O345   1.899       .  S
Al335       O344   1.777       .  S
C336        O349   1.268       .  A
C336        C407   1.476       .  S
O337        C347   1.260       .  A
O337       Al339   1.913       .  S
O338        C351   1.255       .  A
O338       Al348   1.852       .  S
Al339       O352   1.940       .  S
Al339       O349   1.933       .  S
Al339       O344   1.790       .  S
O340        C347   1.257       .  A
O340       Al348   1.884       .  S
O341        C350   1.263       .  A
O341       Al348   1.918       .  S
O342       Al348   1.887       .  S
O343        C350   1.263       .  A
O344       Al348   1.777       .  S
O345        C346   1.258       .  A
C346        C827   1.481       .  S
C347        C357   1.472       .  S
C350        C477   1.484       .  S
C351        O352   1.269       .  A
C351        C697   1.479       .  S
C353        C354   1.411       .  A
C353        C358   1.405       .  A
C353        H360   1.083       .  S
C354        C355   1.417       .  A
C355        C356   1.392       .  A
C355       Br362   1.923       .  S
C356        C357   1.399       .  A
C356        H361   1.084       .  S
C357        C358   1.406       .  A
C358       Br359   1.917       .  S
C363        C364   1.411       .  A
C363        C368   1.406       .  A
C363        H370   1.083       .  S
C364        C365   1.418       .  A
C365        C366   1.393       .  A
C365       Br372   1.926       .  S
C366        C367   1.400       .  A
C366        H371   1.084       .  S
C367        C368   1.408       .  A
C368       Br369   1.917       .  S
C373        C374   1.395       .  A
C373        C378   1.385       .  A
C373        H380   1.086       .  S
C374        C375   1.408       .  A
C375        C376   1.412       .  A
C375       Br382   1.909       .  S
C376        C377   1.409       .  A
C376        H381   1.083       .  S
C377        C378   1.414       .  A
C378       Br379   1.911       .  S
C383        C384   1.403       .  A
C383        C388   1.407       .  A
C383        H390   1.084       .  S
C384        C385   1.408       .  A
C385        C386   1.399       .  A
C385       Br392   1.906       .  S
C386        C387   1.402       .  A
C386        H391   1.084       .  S
C387        C388   1.417       .  A
C388       Br389   1.920       .  S
C393        C394   1.402       .  A
C393        C398   1.399       .  A
C393        H400   1.084       .  S
C394        C395   1.412       .  A
C395        C396   1.398       .  A
C395       Br402   1.918       .  S
C396        C397   1.402       .  A
C396        H401   1.084       .  S
C397        C398   1.414       .  A
C398       Br399   1.921       .  S
C403        C404   1.402       .  A
C403        C408   1.396       .  A
C403        H410   1.084       .  S
C404        C405   1.408       .  A
C405        C406   1.400       .  A
C405       Br412   1.916       .  S
C406        C407   1.405       .  A
C406        H411   1.084       .  S
C407        C408   1.410       .  A
C408       Br409   1.917       .  S
C413        C414   1.409       .  A
C413        C418   1.403       .  A
C413        H420   1.083       .  S
C414        C415   1.414       .  A
C415        C416   1.395       .  A
C415       Br422   1.921       .  S
C416        C417   1.400       .  A
C416        H421   1.082       .  S
C417        C418   1.406       .  A
C418       Br419   1.916       .  S
C423        C424   1.400       .  A
C423        C428   1.399       .  A
C423        H430   1.084       .  S
C424        C425   1.407       .  A
C425        C426   1.397       .  A
C425       Br432   1.918       .  S
C426        C427   1.399       .  A
C426        H431   1.080       .  S
C427        C428   1.410       .  A
C428       Br429   1.917       .  S
C433        C434   1.407       .  A
C433        C438   1.406       .  A
C433        H440   1.084       .  S
C434        C435   1.412       .  A
C435        C436   1.402       .  A
C435       Br442   1.919       .  S
C436        C437   1.404       .  A
C436        H441   1.084       .  S
C437        C438   1.412       .  A
C438       Br439   1.919       .  S
C443        C444   1.402       .  A
C443        C448   1.399       .  A
C443        H450   1.080       .  S
C444        C988   1.475   1_554  S
C444        C445   1.410       .  A
C445        C446   1.396       .  A
C445      Br1284   1.923       .  S
C446        C447   1.404       .  A
C446        H451   1.081       .  S
C447        C448   1.412       .  A
C448       Br449   1.921       .  S
Br452      C1277   1.923       .  S
C453        C454   1.398       .  A
C453        C458   1.399       .  A
C453        H460   1.084       .  S
C454        C455   1.401       .  A
C455        C456   1.392       .  A
C455       Br462   1.914       .  S
C456        C457   1.405       .  A
C456        H461   1.083       .  S
C457        C458   1.418       .  A
C458       Br459   1.920       .  S
C463        C464   1.407       .  A
C463        C468   1.403       .  A
C463        H470   1.084       .  S
C464        C465   1.416       .  A
C465        C466   1.396       .  A
C465       Br472   1.922       .  S
C466        C467   1.401       .  A
C466        H471   1.084       .  S
C467        C468   1.408       .  A
C468       Br469   1.916       .  S
C473        C474   1.405       .  A
C473        C478   1.397       .  A
C473        H480   1.083       .  S
C474        C475   1.420       .  A
C475        C476   1.401       .  A
C475       Br482   1.924   1_455  S
C476        C477   1.403       .  A
C476        H481   1.083       .  S
C477        C478   1.413       .  A
C478       Br479   1.922       .  S
C483        C484   1.405       .  A
C483        C488   1.409       .  A
C483        H490   1.083       .  S
C484        C485   1.410       .  A
C485        C486   1.394       .  A
C485       Br492   1.915       .  S
C486        C487   1.405       .  A
C486        H491   1.084       .  S
C487        C488   1.420       .  A
C488       Br489   1.920       .  S
C493        C494   1.406       .  A
C493        C498   1.404       .  A
C493       H1332   1.083       .  S
C494        C980   1.477   1_554  S
C494        C495   1.413       .  A
C495        C496   1.395       .  A
C495       Br502   1.922       .  S
C496        C497   1.398       .  A
C496        H501   1.084       .  S
C497        C498   1.407       .  A
C498       Br499   1.917       .  S
H500       C1325   1.083       .  S
C503        C504   1.398       .  A
C503        C508   1.395       .  A
C503        H510   1.083       .  S
C504        C505   1.403       .  A
C505        C506   1.400       .  A
C505       Br512   1.918       .  S
C506        C507   1.411       .  A
C506        H511   1.083       .  S
C507        C508   1.419       .  A
C508       Br509   1.924       .  S
C513        C514   1.410       .  A
C513        C518   1.396       .  A
C513        H520   1.083       .  S
C514        C515   1.414       .  A
C515        C516   1.402       .  A
C515       Br522   1.921       .  S
C516        C517   1.404       .  A
C516        H521   1.084       .  S
C517        C518   1.405       .  A
C518       Br519   1.922       .  S
C523        C524   1.409       .  A
C523        C528   1.403       .  A
C523        H530   1.083       .  S
C524        C525   1.416       .  A
C525        C526   1.399       .  A
C525       Br532   1.922       .  S
C526        C527   1.403       .  A
C526        H531   1.084       .  S
C527        C528   1.411       .  A
C528       Br529   1.922       .  S
C533        C534   1.402       .  A
C533        C538   1.406       .  A
C533        H540   1.083       .  S
C534        C535   1.406       .  A
C535        C536   1.387       .  A
C535       Br542   1.915       .  S
C536       C1369   1.403       .  A
C536       H1373   1.083       .  S
C537       C1368   1.403   1_554  A
C537       C1370   1.420   1_554  A
C538       C1369   1.420       .  A
C538      Br1371   1.920       .  S
Br539      C1370   1.920   1_554  S
H541       C1368   1.083       .  S
C543        C544   1.404       .  A
C543        C548   1.391       .  A
C543        H550   1.084       .  S
C544        C545   1.415       .  A
C545        C546   1.396       .  A
C545       Br552   1.922       .  S
C546        C547   1.397       .  A
C546        H551   1.078       .  S
C547        C548   1.407       .  A
C548       Br549   1.920       .  S
C553        C554   1.407       .  A
C553        C558   1.402       .  A
C553        H560   1.083       .  S
C554        C555   1.421       .  A
C555        C556   1.396       .  A
C555       Br562   1.925       .  S
C556        C557   1.397       .  A
C556        H561   1.084       .  S
C557        C558   1.409       .  A
C558       Br559   1.920       .  S
C563        C564   1.403   1_545  A
C563       C1400   1.396       .  A
C563        H570   1.084       .  S
C564       C1397   1.406       .  A
C565        C566   1.397   1_565  A
C565       C1396   1.406   1_554  A
C565       Br572   1.920       .  S
C566        C567   1.404       .  A
C566        H571   1.084       .  S
C567        C568   1.407       .  A
C568       C1395   1.397   1_554  A
C568      Br1401   1.921   1_554  S
Br569      C1400   1.921       .  S
C573        C574   1.402       .  A
C573        C578   1.397   1_545  A
C573        H580   1.084       .  S
C574        C575   1.412       .  A
C575        C576   1.399   1_545  A
C575       Br582   1.919       .  S
C576        C577   1.401       .  A
C576        H581   1.084       .  S
C577        C578   1.408       .  A
C578       Br579   1.919       .  S
C583        C584   1.407       .  A
C583        C588   1.401       .  A
C583        H590   1.084       .  S
C584        C585   1.411       .  A
C585        C586   1.401       .  A
C585       Br592   1.920       .  S
C586        C587   1.400       .  A
C586        H591   1.079       .  S
C587        C588   1.406       .  A
C588       Br589   1.919       .  S
C593        C594   1.400       .  A
C593        C598   1.399       .  A
C593        H600   1.084       .  S
C594        C595   1.405       .  A
C595       C1428   1.388       .  A
C595       Br602   1.920       .  S
C596        C597   1.406   1_556  A
C596       C1427   1.388       .  A
C596        H601   1.084   1_556  S
C597       C1430   1.414   1_554  A
C598       C1429   1.414       .  A
C598       Br599   1.913       .  S
C603        C604   1.399       .  A
C603        C608   1.400       .  A
C603        H610   1.084       .  S
C604        C605   1.402       .  A
C605        C606   1.394       .  A
C605       Br612   1.917       .  S
C606        C607   1.407       .  A
C606        H611   1.084       .  S
C607        C608   1.417       .  A
C608       Br609   1.920       .  S
C613        C614   1.406       .  A
C613        C618   1.399       .  A
C613        H620   1.084       .  S
C614        C615   1.415       .  A
C615        C616   1.398       .  A
C615       Br622   1.921       .  S
C616        C617   1.401       .  A
C616        H621   1.084       .  S
C617        C618   1.407       .  A
C618       Br619   1.920       .  S
C623        C624   1.404       .  A
C623        C628   1.397       .  A
C623        H630   1.084       .  S
C624        C625   1.415       .  A
C625        C626   1.398       .  A
C625       Br632   1.921       .  S
C626        C627   1.399       .  A
C626        H631   1.084       .  S
C627        C628   1.406       .  A
C628       Br629   1.919       .  S
C633        C638   1.401       .  A
C633       C1466   1.402       .  A
C633        H640   1.084       .  S
C634        C635   1.411   1_554  A
C634       C1465   1.402   1_554  A
C635       C1468   1.397       .  A
C635       Br642   1.920   1_556  S
C636        C637   1.403       .  A
C636       C1467   1.397       .  A
C636        H641   1.084       .  S
C637        C638   1.415       .  A
C638       Br639   1.921       .  S
C643        C644   1.405       .  A
C643        C648   1.396       .  A
C643        H650   1.084       .  S
C644        C645   1.416       .  A
C645        C646   1.398       .  A
C645       Br652   1.919       .  S
C646        C647   1.397       .  A
C646        H651   1.084       .  S
C647        C648   1.405       .  A
C648       Br649   1.922       .  S
C653        C654   1.408       .  A
C653        C658   1.402       .  A
C653        H660   1.083       .  S
C654        C655   1.414       .  A
C655        C656   1.396       .  A
C655       Br662   1.919       .  S
C656        C657   1.399       .  A
C656        H661   1.083       .  S
C657        C658   1.408       .  A
C658       Br659   1.920       .  S
C663        C664   1.402       .  A
C663        C668   1.397   1_455  A
C663        H670   1.084   1_455  S
C664        C665   1.406       .  A
C665       C1498   1.402   1_554  A
C665      Br1504   1.917   1_554  S
C666        C667   1.404   1_455  A
C666       C1497   1.401       .  A
C666        H671   1.084       .  S
C667       C1500   1.406       .  A
C668       C1499   1.406   1_554  A
C668       Br669   1.919       .  S
Br672      C1497   1.917       .  S
C673        C674   1.404   1_655  A
C673        C678   1.396       .  A
C673        H680   1.083   1_655  S
C674        C675   1.421       .  A
C675        C676   1.397   1_455  A
C675       Br682   1.925       .  S
C676        C677   1.400       .  A
C676        H681   1.084       .  S
C677        C678   1.412       .  A
C678       Br679   1.921       .  S
C683        C684   1.409       .  A
C683        C688   1.403       .  A
C683        H690   1.083       .  S
C684        C685   1.418       .  A
C685        C686   1.398       .  A
C685       Br692   1.924       .  S
C686        C687   1.401       .  A
C686        H691   1.084       .  S
C687        C688   1.407       .  A
C688       Br689   1.919       .  S
C693        C698   1.382       .  A
C693       C1526   1.401       .  A
C693        H700   1.083       .  S
C694        C695   1.414   1_554  A
C694       C1525   1.401   1_554  A
C695       C1528   1.406       .  A
C695       Br702   1.919   1_556  S
C696        C697   1.408       .  A
C696       C1527   1.406       .  A
C696        H701   1.083       .  S
C697        C698   1.415       .  A
C698       Br699   1.925       .  S
C703        C704   1.409       .  A
C703        C708   1.396       .  A
C703        H710   1.083       .  S
C704        C705   1.417       .  A
C705        C706   1.391       .  A
C705       Br712   1.924       .  S
C706        C707   1.396       .  A
C706        H711   1.084       .  S
C707        C708   1.402       .  A
C708       Br709   1.917       .  S
C713        C714   1.407       .  A
C713        C718   1.400       .  A
C713        H720   1.083       .  S
C714        C715   1.421       .  A
C715        C716   1.398       .  A
C715       Br722   1.925       .  S
C716        C717   1.399       .  A
C716        H721   1.084       .  S
C717        C718   1.406       .  A
C718       Br719   1.919       .  S
C723        C724   1.399       .  A
C723        C728   1.394   1_545  A
C723        H730   1.082       .  S
C724        C725   1.407   1_545  A
C725        C726   1.397       .  A
C725       Br732   1.918   1_565  S
C726        C727   1.404       .  A
C726        H731   1.084       .  S
C727        C728   1.411       .  A
C728       Br729   1.918       .  S
C733        C734   1.405       .  A
C733       C1570   1.400   1_545  A
C733        H740   1.081       .  S
C734       C1567   1.407       .  A
C735        C736   1.396       .  A
C735       C1566   1.407   1_554  A
C735      Br1574   1.921       .  S
C736        C737   1.404   1_545  A
C736        H741   1.084       .  S
C737        C738   1.405   1_554  A
C738       C1565   1.400   1_565  A
C738       Br739   1.919       .  S
Br742      C1567   1.921       .  S
C743        C744   1.402       .  A
C743        C748   1.400       .  A
C743        H750   1.084       .  S
C744        C856   1.469   1_554  S
C744        C745   1.408       .  A
C745        C746   1.393       .  A
C745      Br1584   1.922       .  S
C746        C747   1.405       .  A
C746        H751   1.084       .  S
C747        C748   1.416       .  A
C748       Br749   1.922       .  S
Br752      C1577   1.922       .  S
C753        C754   1.404       .  A
C753        C758   1.398       .  A
C753        H760   1.084       .  S
C754        C755   1.409       .  A
C755        C756   1.395       .  A
C755       Br762   1.919       .  S
C756        C757   1.398       .  A
C756        H761   1.083       .  S
C757        C758   1.406       .  A
C758       Br759   1.918       .  S
C763        C764   1.406       .  A
C763        C768   1.400       .  A
C763        H770   1.083       .  S
C764        C765   1.417       .  A
C765        C766   1.398       .  A
C765       Br772   1.923       .  S
C766        C767   1.402       .  A
C766        H771   1.084       .  S
C767        C768   1.409       .  A
C768       Br769   1.917       .  S
C773        C774   1.406       .  A
C773        C778   1.391       .  A
C773        H780   1.084       .  S
C774        C775   1.415       .  A
C775        C776   1.404   1_655  A
C775       Br782   1.922       .  S
C776        C777   1.409       .  A
C776        H781   1.084       .  S
C777        C778   1.414   1_455  A
C778       Br779   1.925       .  S
C783        C784   1.403   1_655  A
C783       C1620   1.399       .  A
C783        H790   1.084       .  S
C784       C1617   1.404       .  A
C785        C786   1.398       .  A
C785       C1616   1.404   1_554  A
C785       Br792   1.919       .  S
C786        C787   1.403   1_455  A
C786        H791   1.084       .  S
C787        C788   1.405       .  A
C788       C1615   1.399   1_554  A
C788      Br1621   1.919   1_554  S
Br789      C1620   1.919       .  S
C793        C794   1.410       .  A
C793        C798   1.402       .  A
C793        H800   1.083       .  S
C794        C795   1.416       .  A
C795        C796   1.398       .  A
C795       Br802   1.924       .  S
C796        C797   1.401       .  A
C796        H801   1.084       .  S
C797        C798   1.406       .  A
C798       Br799   1.919       .  S
C803        C804   1.410       .  A
C803        C808   1.403       .  A
C803        H810   1.083       .  S
C804        C848   1.489   1_554  S
C804        C805   1.421       .  A
C805        C806   1.392       .  A
C805       Br812   1.928       .  S
C806        C807   1.400       .  A
C806        H811   1.085       .  S
C807        C808   1.407       .  A
C808       Br809   1.916       .  S
C813        C814   1.409       .  A
C813        C818   1.400       .  A
C813        H820   1.083       .  S
C814        C815   1.419       .  A
C815        C816   1.392       .  A
C815       Br822   1.925       .  S
C816        C817   1.397       .  A
C816        H821   1.085       .  S
C817        C818   1.404       .  A
C818       Br819   1.915       .  S
C823        C824   1.398       .  A
C823        C828   1.395       .  A
C823        H830   1.084       .  S
C824        C825   1.407       .  A
C825        C826   1.401       .  A
C825       Br832   1.920       .  S
C826        C827   1.407       .  A
C826        H831   1.083       .  S
C827        C828   1.418       .  A
C828       Br829   1.924       .  S
O833        C848   1.256       .  A
O833       Al841   1.869       .  S
C834        O844   1.257       .  A
C834        O835   1.269       .  A
C834       C1646   1.483       .  S
O835       Al837   1.934       .  S
O836        C838   1.254       .  A
O836       Al837   1.882       .  S
Al837       O845   1.886       .  S
Al837       O847   1.942       .  S
Al837       O846   1.777       .  S
C838        O851   1.259       .  A
C838       C1656   1.468       .  S
O839        C849   1.261       .  A
O839       Al841   1.897       .  S
O840        C853   1.262       .  A
O840       Al850   1.902       .  S
Al841       O854   1.918       .  S
Al841       O851   1.918       .  S
Al841       O846   1.779       .  S
O842        C849   1.264       .  A
O842       Al850   1.922       .  S
O843        C852   1.262       .  A
O843       Al850   1.922       .  S
O844       Al850   1.868       .  S
O845        C852   1.256       .  A
O846       Al850   1.782       .  S
O847        C848   1.270       .  A
C849       C1609   1.487       .  S
C852       C1626   1.487       .  S
C853        O854   1.265       .  A
C853       C1616   1.463       .  S
O855        C870   1.255       .  A
O855       Al863   1.894       .  S
C856        O866   1.260       .  A
C856        O857   1.262       .  A
O857       Al859   1.910       .  S
O858        C860   1.262       .  A
O858       Al859   1.880       .  S
Al859       O867   1.905       .  S
Al859       O869   1.888       .  S
Al859       O868   1.777       .  S
C860        O873   1.267       .  A
C860       C1566   1.469       .  S
O861        C871   1.258       .  A
O861       Al863   1.908       .  S
O862        C875   1.259       .  A
O862       Al872   1.869       .  S
Al863       O876   1.924       .  S
Al863       O873   1.929       .  S
Al863       O868   1.793       .  S
O864        C871   1.255       .  A
O864       Al872   1.888       .  S
O865        C874   1.263       .  A
O865       Al872   1.922       .  S
O866       Al872   1.899       .  S
O867        C874   1.261       .  A
O868       Al872   1.785       .  S
O869        C870   1.255       .  A
C870       C1556   1.465       .  S
C871       C1629   1.473       .  S
C874       C1599   1.479       .  S
C875        O876   1.267       .  A
C875       C1586   1.467       .  S
O877        C892   1.260       .  A
O877       Al885   1.852       .  S
C878        O888   1.256       .  A
C878        O879   1.265       .  A
C878       C1536   1.477       .  S
O879       Al881   1.916       .  S
O880        C882   1.256       .  A
O880       Al881   1.894       .  S
Al881       O889   1.878       .  S
Al881       O891   1.940       .  S
Al881       O890   1.776       .  S
C882        O895   1.258       .  A
C882       C1549   1.470       .  S
O883        C893   1.256       .  A
O883       Al885   1.875       .  S
O884        C897   1.261       .  A
O884       Al894   1.909       .  S
Al885       O898   1.912       .  S
Al885       O895   1.916       .  S
Al885       O890   1.772       .  S
O886        C893   1.272       .  A
O886       Al894   1.945       .  S
O887        C896   1.266       .  A
O887       Al894   1.935       .  S
O888       Al894   1.869       .  S
O889        C896   1.256       .  A
O890       Al894   1.782       .  S
O891        C892   1.267       .  A
C892       C1526   1.481       .  S
C893       C1506   1.485       .  S
C896       C1516   1.489       .  S
C897        O898   1.262       .  A
C897       C1496   1.466       .  S
O899        C914   1.259       .  A
O899       Al907   1.897       .  S
C900        O910   1.260       .  A
C900        O901   1.261       .  A
C900       C1466   1.476       .  S
O901       Al903   1.914       .  S
O902        C904   1.264       .  A
O902       Al903   1.900       .  S
Al903       O911   1.902       .  S
Al903       O913   1.904       .  S
Al903       O912   1.781       .  S
C904        O917   1.264       .  A
C904       C1569   1.469       .  S
O905        C915   1.261       .  A
O905       Al907   1.905       .  S
O906        C919   1.260       .  A
O906       Al916   1.887       .  S
Al907       O920   1.916       .  S
Al907       O917   1.915       .  S
Al907       O912   1.789       .  S
O908        C915   1.260       .  A
O908       Al916   1.900       .  S
O909        C918   1.263       .  A
O909       Al916   1.919       .  S
O910       Al916   1.903       .  S
O911        C918   1.261       .  A
O912       Al916   1.782       .  S
O913        C914   1.257       .  A
C914       C1456   1.476   1_565  S
C915       C1519   1.475       .  S
C918       C1489   1.472       .  S
C919        O920   1.262       .  A
C919       C1476   1.477       .  S
O921        C936   1.258       .  A
O921       Al929   1.898       .  S
C922        O932   1.259       .  A
C922        O923   1.261       .  A
C922       C1429   1.478       .  S
O923       Al925   1.899       .  S
O924        C926   1.261       .  A
O924       Al925   1.880       .  S
Al925       O933   1.889       .  S
Al925       O935   1.901       .  S
Al925       O934   1.776       .  S
C926        O939   1.267       .  A
C926       C1399   1.466       .  S
O927        C937   1.259       .  A
O927       Al929   1.904       .  S
O928        C941   1.260       .  A
O928       Al938   1.874       .  S
Al929       O942   1.923       .  S
Al929       O939   1.928       .  S
Al929       O934   1.789       .  S
O930        C937   1.260       .  A
O930       Al938   1.908       .  S
O931        C940   1.265       .  A
O931       Al938   1.931       .  S
O932       Al938   1.902       .  S
O933        C940   1.259       .  A
O934       Al938   1.784       .  S
O935        C936   1.256       .  A
C936       C1406   1.472       .  S
C937       C1419   1.473       .  S
C940       C1449   1.471       .  S
C941        O942   1.265       .  A
C941       C1439   1.480       .  S
O943        C958   1.262       .  A
O943       Al951   1.878       .  S
C944        O954   1.261       .  A
C944        O945   1.263       .  A
C944       C1376   1.474       .  S
O945       Al947   1.910       .  S
O946        C948   1.258       .  A
O946       Al947   1.896       .  S
Al947       O955   1.896       .  S
Al947       O957   1.923       .  S
Al947       O956   1.780       .  S
C948        O961   1.259       .  A
C948       C1389   1.472       .  S
O949        C959   1.262       .  A
O949       Al951   1.903       .  S
O950        C963   1.262       .  A
O950       Al960   1.907       .  S
Al951       O964   1.906       .  S
Al951       O961   1.915       .  S
Al951       O956   1.777       .  S
O952        C959   1.265       .  A
O952       Al960   1.929       .  S
O953        C962   1.263       .  A
O953       Al960   1.924       .  S
O954       Al960   1.879       .  S
O955        C962   1.260       .  A
O956       Al960   1.785       .  S
O957        C958   1.262       .  A
C958       C1369   1.486       .  S
C959       C1356   1.491   1_655  S
C962       C1416   1.482       .  S
C963        O964   1.263       .  A
C963       C1619   1.462       .  S
O965        C980   1.259       .  A
O965       Al973   1.875       .  S
C966        O976   1.258       .  A
C966        O967   1.266       .  A
C966       C1339   1.486       .  S
O967       Al969   1.926       .  S
O968        C970   1.257       .  A
O968       Al969   1.898       .  S
Al969       O977   1.884       .  S
Al969       O979   1.939       .  S
Al969       O978   1.778       .  S
C970        O983   1.257       .  A
C970       C1349   1.471       .  S
O971        C981   1.257       .  A
O971       Al973   1.885       .  S
O972        C985   1.262       .  A
O972       Al982   1.909       .  S
Al973       O986   1.907       .  S
Al973       O983   1.911       .  S
Al973       O978   1.780       .  S
O974        C981   1.269       .  A
O974       Al982   1.936       .  S
O975        C984   1.263       .  A
O975       Al982   1.935       .  S
O976       Al982   1.880       .  S
O977        C984   1.259       .  A
O978       Al982   1.789       .  S
O979        C980   1.268       .  A
C981       C1306   1.490   1_655  S
C984       C1319   1.495       .  S
C985        O986   1.262       .  A
C985       C1499   1.465       .  S
O987       C1002   1.260       .  A
O987       Al995   1.912       .  S
C988        O998   1.261       .  A
C988        O989   1.262       .  A
O989       Al991   1.913       .  S
O990        C992   1.261       .  A
O990       Al991   1.885       .  S
Al991       O999   1.906       .  S
Al991      O1001   1.904       .  S
Al991      O1000   1.787       .  S
C992       O1005   1.262       .  A
C992       C1396   1.465       .  S
O993       C1003   1.261       .  A
O993       Al995   1.925       .  S
O994       C1007   1.262       .  A
O994      Al1004   1.878       .  S
Al995      O1008   1.915       .  S
Al995      O1005   1.908       .  S
Al995      O1000   1.798       .  S
O996       C1003   1.255       .  A
O996      Al1004   1.889       .  S
O997       C1006   1.259       .  A
O997      Al1004   1.911       .  S
O998      Al1004   1.901       .  S
O999       C1006   1.261       .  A
O1000     Al1004   1.786       .  S
O1001      C1002   1.258       .  A
C1002      C1266   1.487   1_565  S
C1003      C1316   1.484       .  S
C1006      C1296   1.483       .  S
C1007      O1008   1.263       .  A
C1007      C1289   1.476       .  S
O1009      C1024   1.257       .  A
O1009     Al1017   1.885       .  S
C1010      O1020   1.261       .  A
C1010      O1011   1.263       .  A
C1010      C1579   1.479       .  S
O1011     Al1013   1.916       .  S
O1012      C1014   1.256       .  A
O1012     Al1013   1.880       .  S
Al1013     O1021   1.884       .  S
Al1013     O1023   1.909       .  S
Al1013     O1022   1.787       .  S
C1014      O1027   1.261       .  A
C1014      C1459   1.466       .  S
O1015      C1025   1.257       .  A
O1015     Al1017   1.894       .  S
O1016      C1029   1.263       .  A
O1016     Al1026   1.904       .  S
Al1017     O1030   1.909       .  S
Al1017     O1027   1.915       .  S
Al1017     O1022   1.782       .  S
O1018      C1025   1.262       .  A
O1018     Al1026   1.916       .  S
O1019      C1028   1.263       .  A
O1019     Al1026   1.928       .  S
O1020     Al1026   1.883       .  S
O1021      C1028   1.257       .  A
O1022     Al1026   1.790       .  S
O1023      C1024   1.259       .  A
C1024      C1589   1.460       .  S
C1025      C1446   1.481       .  S
C1028      C1246   1.486       .  S
C1029      O1030   1.264       .  A
C1029      C1256   1.464       .  S
O1031      C1046   1.262       .  A
O1031     Al1039   1.907       .  S
C1032      O1042   1.258       .  A
C1032      O1033   1.261       .  A
C1032      C1649   1.465       .  S
O1033     Al1035   1.907       .  S
O1034      C1036   1.263       .  A
O1034     Al1035   1.895       .  S
Al1035     O1043   1.904       .  S
Al1035     O1045   1.905       .  S
Al1035     O1044   1.776       .  S
C1036      O1049   1.268       .  A
C1036      C1236   1.473       .  S
O1037      C1047   1.260       .  A
O1037     Al1039   1.907       .  S
O1038      C1051   1.258       .  A
O1038     Al1048   1.870       .  S
Al1039     O1052   1.934       .  S
Al1039     O1049   1.929       .  S
Al1039     O1044   1.788       .  S
O1040      C1047   1.260       .  A
O1040     Al1048   1.901       .  S
O1041      C1050   1.266       .  A
O1041     Al1048   1.926       .  S
O1042     Al1048   1.903       .  S
O1043      C1050   1.262       .  A
O1044     Al1048   1.779       .  S
O1045      C1046   1.257       .  A
C1046      C1546   1.487       .  S
C1047      C1249   1.473       .  S
C1050      C1359   1.482       .  S
C1051      O1052   1.266       .  A
C1051      C1639   1.475       .  S
O1053      C1068   1.261       .  A
O1053     Al1061   1.911       .  S
C1054      O1064   1.261       .  A
C1054      O1055   1.260       .  A
C1054      C1379   1.463       .  S
O1055     Al1057   1.903       .  S
O1056      C1058   1.262       .  A
O1056     Al1057   1.886       .  S
Al1057     O1065   1.905       .  S
Al1057     O1067   1.899       .  S
Al1057     O1066   1.781       .  S
C1058      O1071   1.267       .  A
C1058      C1226   1.475       .  S
O1059      C1069   1.263       .  A
O1059     Al1061   1.923       .  S
O1060      C1073   1.258       .  A
O1060     Al1070   1.875       .  S
Al1061     O1074   1.931       .  S
Al1061     O1071   1.934       .  S
Al1061     O1066   1.791       .  S
O1062      C1069   1.260       .  A
O1062     Al1070   1.906       .  S
O1063      C1072   1.264       .  A
O1063     Al1070   1.908       .  S
O1064     Al1070   1.900       .  S
O1065      C1072   1.261       .  A
O1066     Al1070   1.779       .  S
O1067      C1068   1.259       .  A
C1068      C1346   1.487       .  S
C1069      C1216   1.482       .  S
C1072      C1606   1.490       .  S
C1073      O1074   1.265       .  A
C1073      C1366   1.472       .  S
O1075      C1090   1.260       .  A
O1075     Al1083   1.890       .  S
C1076      O1086   1.258       .  A
C1076      O1077   1.263       .  A
C1076      C1426   1.461       .  S
O1077     Al1079   1.913       .  S
O1078      C1080   1.259       .  A
O1078     Al1079   1.897       .  S
Al1079     O1087   1.896       .  S
Al1079     O1089   1.912       .  S
Al1079     O1088   1.789       .  S
C1080      O1093   1.262       .  A
C1080      C1269   1.486       .  S
O1081      C1091   1.262       .  A
O1081     Al1083   1.902       .  S
O1082      C1095   1.264       .  A
O1082     Al1092   1.913       .  S
Al1083     O1096   1.905       .  S
Al1083     O1093   1.927       .  S
Al1083     O1088   1.781       .  S
O1084      C1091   1.262       .  A
O1084     Al1092   1.918       .  S
O1085      C1094   1.262       .  A
O1085     Al1092   1.929       .  S
O1086     Al1092   1.875       .  S
O1087      C1094   1.259       .  A
O1088     Al1092   1.792       .  S
O1089      C1090   1.260       .  A
C1090      C1436   1.464       .  S
C1091      C1596   1.487       .  S
C1094      C1219   1.487       .  S
C1095      O1096   1.263       .  A
C1095      C1259   1.466       .  S
O1097      C1112   1.260       .  A
O1097     Al1105   1.883       .  S
C1098      O1108   1.260       .  A
C1098      O1099   1.260       .  A
C1098      C1279   1.479       .  S
O1099     Al1101   1.907       .  S
O1100      C1102   1.256       .  A
O1100     Al1101   1.885       .  S
Al1101     O1109   1.871       .  S
Al1101     O1111   1.915       .  S
Al1101     O1110   1.786       .  S
C1102      O1115   1.260       .  A
C1102      C1409   1.469       .  S
O1103      C1113   1.264       .  A
O1103     Al1105   1.901       .  S
O1104      C1117   1.263       .  A
O1104     Al1114   1.929       .  S
Al1105     O1118   1.888       .  S
Al1105     O1115   1.918       .  S
Al1105     O1110   1.778       .  S
O1106      C1113   1.266       .  A
O1106     Al1114   1.924       .  S
O1107      C1116   1.266       .  A
O1107     Al1114   1.935       .  S
O1108     Al1114   1.893       .  S
O1109      C1116   1.254       .  A
O1110     Al1114   1.791       .  S
O1111      C1112   1.261       .  A
C1112      C1286   1.459       .  S
C1113      C1486   1.482       .  S
C1116      C1196   1.490       .  S
C1117      O1118   1.261       .  A
C1117      C1206   1.475       .  S
O1119      C1134   1.264       .  A
O1119     Al1127   1.914       .  S
C1120      O1130   1.260       .  A
C1120      O1121   1.261       .  A
C1120      C1336   1.466       .  S
O1121     Al1123   1.908       .  S
O1122      C1124   1.262       .  A
O1122     Al1123   1.894       .  S
Al1123     O1131   1.898       .  S
Al1123     O1133   1.901       .  S
Al1123     O1132   1.777       .  S
C1124      O1137   1.263       .  A
C1124      C1229   1.477       .  S
O1125      C1135   1.261       .  A
O1125     Al1127   1.914       .  S
O1126      C1139   1.259       .  A
O1126     Al1136   1.886       .  S
Al1127     O1140   1.931       .  S
Al1127     O1137   1.921       .  S
Al1127     O1132   1.790       .  S
O1128      C1135   1.260       .  A
O1128     Al1136   1.895       .  S
O1129      C1138   1.260       .  A
O1129     Al1136   1.908       .  S
O1130     Al1136   1.904       .  S
O1131      C1138   1.261       .  A
O1132     Al1136   1.781       .  S
O1133      C1134   1.259       .  A
C1134      C1386   1.486       .  S
C1135      C1199   1.478       .  S
C1138      C1509   1.476       .  S
C1139      O1140   1.265       .  A
C1139      C1329   1.468       .  S
O1141      C1156   1.259       .  A
O1141     Al1149   1.879       .  S
C1142      O1152   1.265       .  A
C1142      O1143   1.263       .  A
C1142      C1469   1.480       .  S
O1143     Al1145   1.906       .  S
O1144      C1146   1.255       .  A
O1144     Al1145   1.889       .  S
Al1145     O1153   1.871       .  S
Al1145     O1155   1.913       .  S
Al1145     O1154   1.789       .  S
C1146      O1159   1.253       .  A
C1146      C1559   1.472       .  S
O1147      C1157   1.263       .  A
O1147     Al1149   1.910       .  S
O1148      C1161   1.269       .  A
O1148     Al1158   1.936       .  S
Al1149     O1162   1.895       .  S
Al1149     O1159   1.891       .  S
Al1149     O1154   1.780       .  S
O1150      C1157   1.264       .  A
O1150     Al1158   1.918       .  S
O1151      C1160   1.261       .  A
O1151     Al1158   1.925       .  S
O1152     Al1158   1.902       .  S
O1153      C1160   1.251       .  A
O1154     Al1158   1.792       .  S
O1155      C1156   1.261       .  A
C1156      C1479   1.461       .  S
C1157      C1299   1.476       .  S
C1160      C1186   1.486       .  S
C1161      O1162   1.259       .  A
C1161      C1209   1.479       .  S
O1163      C1178   1.261       .  A
O1163     Al1171   1.904       .  S
C1164      O1174   1.256       .  A
C1164      O1165   1.262       .  A
C1164      C1539   1.456       .  S
O1165     Al1167   1.909       .  S
O1166      C1168   1.261       .  A
O1166     Al1167   1.884       .  S
Al1167     O1175   1.904       .  S
Al1167     O1177   1.900       .  S
Al1167     O1176   1.777       .  S
C1168      O1181   1.268       .  A
C1168      C1239   1.475       .  S
O1169      C1179   1.260       .  A
O1169     Al1171   1.913       .  S
O1170      C1183   1.255       .  A
O1170     Al1180   1.852       .  S
Al1171     O1184   1.940       .  S
Al1171     O1181   1.933       .  S
Al1171     O1176   1.790       .  S
O1172      C1179   1.257       .  A
O1172     Al1180   1.884       .  S
O1173      C1182   1.263       .  A
O1173     Al1180   1.918       .  S
O1174     Al1180   1.887       .  S
O1175      C1182   1.263       .  A
O1176     Al1180   1.777       .  S
O1177      C1178   1.258       .  A
C1178      C1659   1.481       .  S
C1179      C1189   1.472       .  S
C1182      C1309   1.484       .  S
C1183      O1184   1.269       .  A
C1183      C1529   1.479       .  S
C1185      C1186   1.411       .  A
C1185      C1190   1.405       .  A
C1185      H1192   1.083       .  S
C1186      C1187   1.417       .  A
C1187      C1188   1.392       .  A
C1187     Br1194   1.923       .  S
C1188      C1189   1.399       .  A
C1188      H1193   1.084       .  S
C1189      C1190   1.406       .  A
C1190     Br1191   1.917       .  S
C1195      C1196   1.411       .  A
C1195      C1200   1.406       .  A
C1195      H1202   1.083       .  S
C1196      C1197   1.418       .  A
C1197      C1198   1.393       .  A
C1197     Br1204   1.926       .  S
C1198      C1199   1.400       .  A
C1198      H1203   1.084       .  S
C1199      C1200   1.408       .  A
C1200     Br1201   1.917       .  S
C1205      C1206   1.395       .  A
C1205      C1210   1.385       .  A
C1205      H1212   1.086       .  S
C1206      C1207   1.408       .  A
C1207      C1208   1.412       .  A
C1207     Br1214   1.909       .  S
C1208      C1209   1.409       .  A
C1208      H1213   1.083       .  S
C1209      C1210   1.414       .  A
C1210     Br1211   1.911       .  S
C1215      C1216   1.403       .  A
C1215      C1220   1.407       .  A
C1215      H1222   1.084       .  S
C1216      C1217   1.408       .  A
C1217      C1218   1.399       .  A
C1217     Br1224   1.906       .  S
C1218      C1219   1.402       .  A
C1218      H1223   1.084       .  S
C1219      C1220   1.417       .  A
C1220     Br1221   1.920       .  S
C1225      C1226   1.402       .  A
C1225      C1230   1.399       .  A
C1225      H1232   1.084       .  S
C1226      C1227   1.412       .  A
C1227      C1228   1.398       .  A
C1227     Br1234   1.918       .  S
C1228      C1229   1.402       .  A
C1228      H1233   1.084       .  S
C1229      C1230   1.414       .  A
C1230     Br1231   1.921       .  S
C1235      C1236   1.402       .  A
C1235      C1240   1.396       .  A
C1235      H1242   1.084       .  S
C1236      C1237   1.408       .  A
C1237      C1238   1.400       .  A
C1237     Br1244   1.916       .  S
C1238      C1239   1.405       .  A
C1238      H1243   1.084       .  S
C1239      C1240   1.410       .  A
C1240     Br1241   1.917       .  S
C1245      C1246   1.409       .  A
C1245      C1250   1.403       .  A
C1245      H1252   1.083       .  S
C1246      C1247   1.414       .  A
C1247      C1248   1.395       .  A
C1247     Br1254   1.921       .  S
C1248      C1249   1.399       .  A
C1248      H1253   1.082       .  S
C1249      C1250   1.406       .  A
C1250     Br1251   1.916       .  S
C1255      C1256   1.400       .  A
C1255      C1260   1.399       .  A
C1255      H1262   1.084       .  S
C1256      C1257   1.407       .  A
C1257      C1258   1.397       .  A
C1257     Br1264   1.918       .  S
C1258      C1259   1.399       .  A
C1258      H1263   1.080       .  S
C1259      C1260   1.410       .  A
C1260     Br1261   1.917       .  S
C1265      C1266   1.407       .  A
C1265      C1270   1.406       .  A
C1265      H1272   1.084       .  S
C1266      C1267   1.412       .  A
C1267      C1268   1.402       .  A
C1267     Br1274   1.919       .  S
C1268      C1269   1.404       .  A
C1268      H1273   1.084       .  S
C1269      C1270   1.412       .  A
C1270     Br1271   1.919       .  S
C1275      C1276   1.402       .  A
C1275      C1280   1.399       .  A
C1275      H1282   1.080       .  S
C1276      C1277   1.410       .  A
C1277      C1278   1.396       .  A
C1278      C1279   1.404       .  A
C1278      H1283   1.081       .  S
C1279      C1280   1.412       .  A
C1280     Br1281   1.921       .  S
C1285      C1286   1.398       .  A
C1285      C1290   1.399       .  A
C1285      H1292   1.084       .  S
C1286      C1287   1.401       .  A
C1287      C1288   1.392       .  A
C1287     Br1294   1.914       .  S
C1288      C1289   1.405       .  A
C1288      H1293   1.083       .  S
C1289      C1290   1.418       .  A
C1290     Br1291   1.920       .  S
C1295      C1296   1.407       .  A
C1295      C1300   1.403       .  A
C1295      H1302   1.084       .  S
C1296      C1297   1.416       .  A
C1297      C1298   1.396       .  A
C1297     Br1304   1.922       .  S
C1298      C1299   1.401       .  A
C1298      H1303   1.084       .  S
C1299      C1300   1.408       .  A
C1300     Br1301   1.916       .  S
C1305      C1306   1.405       .  A
C1305      C1310   1.397       .  A
C1305      H1312   1.083       .  S
C1306      C1307   1.420       .  A
C1307      C1308   1.401       .  A
C1307     Br1314   1.924   1_455  S
C1308      C1309   1.403       .  A
C1308      H1313   1.083       .  S
C1309      C1310   1.413       .  A
C1310     Br1311   1.922       .  S
C1315      C1316   1.405       .  A
C1315      C1320   1.409       .  A
C1315      H1322   1.083       .  S
C1316      C1317   1.410       .  A
C1317      C1318   1.394       .  A
C1317     Br1324   1.915       .  S
C1318      C1319   1.405       .  A
C1318      H1323   1.084       .  S
C1319      C1320   1.420       .  A
C1320     Br1321   1.920       .  S
C1325      C1326   1.405       .  A
C1325      C1330   1.404       .  A
C1326      C1327   1.412       .  A
C1327      C1328   1.396       .  A
C1327     Br1334   1.921       .  S
C1328      C1329   1.399       .  A
C1328      H1333   1.084       .  S
C1329      C1330   1.407       .  A
C1330     Br1331   1.917       .  S
C1335      C1336   1.398       .  A
C1335      C1340   1.395       .  A
C1335      H1342   1.083       .  S
C1336      C1337   1.403       .  A
C1337      C1338   1.401       .  A
C1337     Br1344   1.918       .  S
C1338      C1339   1.411       .  A
C1338      H1343   1.083       .  S
C1339      C1340   1.419       .  A
C1340     Br1341   1.924       .  S
C1345      C1346   1.410       .  A
C1345      C1350   1.396       .  A
C1345      H1352   1.083       .  S
C1346      C1347   1.414       .  A
C1347      C1348   1.402       .  A
C1347     Br1354   1.921       .  S
C1348      C1349   1.403       .  A
C1348      H1353   1.084       .  S
C1349      C1350   1.404       .  A
C1350     Br1351   1.922       .  S
C1355      C1356   1.409       .  A
C1355      C1360   1.403       .  A
C1355      H1362   1.083       .  S
C1356      C1357   1.416       .  A
C1357      C1358   1.399       .  A
C1357     Br1364   1.922       .  S
C1358      C1359   1.403       .  A
C1358      H1363   1.084       .  S
C1359      C1360   1.411       .  A
C1360     Br1361   1.922       .  S
C1365      C1366   1.402       .  A
C1365      C1370   1.406       .  A
C1365      H1372   1.083       .  S
C1366      C1367   1.406       .  A
C1367      C1368   1.387       .  A
C1367     Br1374   1.915       .  S
C1375      C1376   1.404       .  A
C1375      C1380   1.391       .  A
C1375      H1382   1.084       .  S
C1376      C1377   1.415       .  A
C1377      C1378   1.396       .  A
C1377     Br1384   1.922       .  S
C1378      C1379   1.397       .  A
C1378      H1383   1.078       .  S
C1379      C1380   1.407       .  A
C1380     Br1381   1.920       .  S
C1385      C1386   1.407       .  A
C1385      C1390   1.402       .  A
C1385      H1392   1.083       .  S
C1386      C1387   1.421       .  A
C1387      C1388   1.396       .  A
C1387     Br1394   1.925       .  S
C1388      C1389   1.397       .  A
C1388      H1393   1.084       .  S
C1389      C1390   1.409       .  A
C1390     Br1391   1.920       .  S
C1395      C1396   1.403   1_545  A
C1395      H1402   1.084       .  S
C1397      C1398   1.397   1_565  A
C1397     Br1404   1.920       .  S
C1398      C1399   1.404       .  A
C1398      H1403   1.084       .  S
C1399      C1400   1.407       .  A
C1405      C1406   1.402       .  A
C1405      C1410   1.397   1_545  A
C1405      H1412   1.084       .  S
C1406      C1407   1.412       .  A
C1407      C1408   1.399   1_545  A
C1407     Br1414   1.919       .  S
C1408      C1409   1.401       .  A
C1408      H1413   1.084       .  S
C1409      C1410   1.408       .  A
C1410     Br1411   1.919       .  S
C1415      C1416   1.407       .  A
C1415      C1420   1.401       .  A
C1415      H1422   1.084       .  S
C1416      C1417   1.411       .  A
C1417      C1418   1.401       .  A
C1417     Br1424   1.920       .  S
C1418      C1419   1.400       .  A
C1418      H1423   1.079       .  S
C1419      C1420   1.406       .  A
C1420     Br1421   1.919       .  S
C1425      C1426   1.400       .  A
C1425      C1430   1.399       .  A
C1425      H1432   1.084       .  S
C1426      C1427   1.405       .  A
C1427     Br1434   1.920       .  S
C1428      C1429   1.406       .  A
C1428      H1433   1.084       .  S
C1430     Br1431   1.913   1_556  S
C1435      C1436   1.399       .  A
C1435      C1440   1.400       .  A
C1435      H1442   1.084       .  S
C1436      C1437   1.402       .  A
C1437      C1438   1.394       .  A
C1437     Br1444   1.917       .  S
C1438      C1439   1.407       .  A
C1438      H1443   1.084       .  S
C1439      C1440   1.417       .  A
C1440     Br1441   1.920       .  S
C1445      C1446   1.406       .  A
C1445      C1450   1.399       .  A
C1445      H1452   1.084       .  S
C1446      C1447   1.415       .  A
C1447      C1448   1.398       .  A
C1447     Br1454   1.921       .  S
C1448      C1449   1.401       .  A
C1448      H1453   1.084       .  S
C1449      C1450   1.407       .  A
C1450     Br1451   1.920       .  S
C1455      C1456   1.404       .  A
C1455      C1460   1.397       .  A
C1455      H1462   1.084       .  S
C1456      C1457   1.415       .  A
C1457      C1458   1.398       .  A
C1457     Br1464   1.921       .  S
C1458      C1459   1.399       .  A
C1458      H1463   1.084       .  S
C1459      C1460   1.406       .  A
C1460     Br1461   1.919       .  S
C1465      C1470   1.401       .  A
C1465      H1472   1.084   1_556  S
C1466      C1467   1.411       .  A
C1467     Br1474   1.920       .  S
C1468      C1469   1.403       .  A
C1468      H1473   1.084       .  S
C1469      C1470   1.415       .  A
C1470     Br1471   1.921       .  S
C1475      C1476   1.405       .  A
C1475      C1480   1.396       .  A
C1475      H1482   1.084       .  S
C1476      C1477   1.416       .  A
C1477      C1478   1.398       .  A
C1477     Br1484   1.919       .  S
C1478      C1479   1.397       .  A
C1478      H1483   1.084       .  S
C1479      C1480   1.405       .  A
C1480     Br1481   1.922       .  S
C1485      C1486   1.408       .  A
C1485      C1490   1.402       .  A
C1485      H1492   1.083       .  S
C1486      C1487   1.413       .  A
C1487      C1488   1.396       .  A
C1487     Br1494   1.919       .  S
C1488      C1489   1.399       .  A
C1488      H1493   1.083       .  S
C1489      C1490   1.408       .  A
C1490     Br1491   1.920       .  S
C1495      C1496   1.402       .  A
C1495      C1500   1.397   1_455  A
C1495      H1502   1.084   1_455  S
C1496      C1497   1.406       .  A
C1498      C1499   1.404   1_455  A
C1498      H1503   1.084       .  S
C1500     Br1501   1.919       .  S
C1505      C1506   1.404   1_655  A
C1505      C1510   1.396       .  A
C1505      H1512   1.083   1_655  S
C1506      C1507   1.421       .  A
C1507      C1508   1.397   1_455  A
C1507     Br1514   1.925       .  S
C1508      C1509   1.400       .  A
C1508      H1513   1.084       .  S
C1509      C1510   1.412       .  A
C1510     Br1511   1.921       .  S
C1515      C1516   1.409       .  A
C1515      C1520   1.403       .  A
C1515      H1522   1.083       .  S
C1516      C1517   1.418       .  A
C1517      C1518   1.398       .  A
C1517     Br1524   1.924       .  S
C1518      C1519   1.401       .  A
C1518      H1523   1.084       .  S
C1519      C1520   1.407       .  A
C1520     Br1521   1.919       .  S
C1525      C1530   1.382       .  A
C1525      H1532   1.083       .  S
C1526      C1527   1.414       .  A
C1527     Br1534   1.919       .  S
C1528      C1529   1.408       .  A
C1528      H1533   1.083       .  S
C1529      C1530   1.415       .  A
C1530     Br1531   1.925       .  S
C1535      C1536   1.409       .  A
C1535      C1540   1.396       .  A
C1535      H1542   1.083       .  S
C1536      C1537   1.417       .  A
C1537      C1538   1.390       .  A
C1537     Br1544   1.924       .  S
C1538      C1539   1.396       .  A
C1538      H1543   1.084       .  S
C1539      C1540   1.402       .  A
C1540     Br1541   1.917       .  S
C1545      C1546   1.407       .  A
C1545      C1550   1.400       .  A
C1545      H1552   1.083       .  S
C1546      C1547   1.421       .  A
C1547      C1548   1.398       .  A
C1547     Br1554   1.925       .  S
C1548      C1549   1.399       .  A
C1548      H1553   1.084       .  S
C1549      C1550   1.406       .  A
C1550     Br1551   1.919       .  S
C1555      C1556   1.399       .  A
C1555      C1560   1.394   1_545  A
C1555      H1562   1.082       .  S
C1556      C1557   1.407   1_545  A
C1557      C1558   1.397       .  A
C1557     Br1564   1.918   1_565  S
C1558      C1559   1.404       .  A
C1558      H1563   1.084       .  S
C1559      C1560   1.411       .  A
C1560     Br1561   1.918       .  S
C1565      C1566   1.405       .  A
C1565      H1572   1.081       .  S
C1567      C1568   1.396       .  A
C1568      C1569   1.404   1_545  A
C1568      H1573   1.084       .  S
C1569      C1570   1.405       .  A
C1570     Br1571   1.919       .  S
C1575      C1576   1.402       .  A
C1575      C1580   1.400       .  A
C1575      H1582   1.084       .  S
C1576      C1577   1.408       .  A
C1577      C1578   1.393       .  A
C1578      C1579   1.405       .  A
C1578      H1583   1.084       .  S
C1579      C1580   1.416       .  A
C1580     Br1581   1.922       .  S
C1585      C1586   1.404       .  A
C1585      C1590   1.398       .  A
C1585      H1592   1.084       .  S
C1586      C1587   1.409       .  A
C1587      C1588   1.395       .  A
C1587     Br1594   1.919       .  S
C1588      C1589   1.398       .  A
C1588      H1593   1.083       .  S
C1589      C1590   1.405       .  A
C1590     Br1591   1.918       .  S
C1595      C1596   1.406       .  A
C1595      C1600   1.400       .  A
C1595      H1602   1.083       .  S
C1596      C1597   1.417       .  A
C1597      C1598   1.398       .  A
C1597     Br1604   1.923       .  S
C1598      C1599   1.402       .  A
C1598      H1603   1.084       .  S
C1599      C1600   1.409       .  A
C1600     Br1601   1.917       .  S
C1605      C1606   1.406       .  A
C1605      C1610   1.391       .  A
C1605      H1612   1.084       .  S
C1606      C1607   1.415       .  A
C1607      C1608   1.404   1_655  A
C1607     Br1614   1.922       .  S
C1608      C1609   1.409       .  A
C1608      H1613   1.084       .  S
C1609      C1610   1.414   1_455  A
C1610     Br1611   1.925       .  S
C1615      C1616   1.403   1_655  A
C1615      H1622   1.084       .  S
C1617      C1618   1.398       .  A
C1617     Br1624   1.919       .  S
C1618      C1619   1.403   1_455  A
C1618      H1623   1.084       .  S
C1619      C1620   1.405       .  A
C1625      C1626   1.410       .  A
C1625      C1630   1.401       .  A
C1625      H1632   1.083       .  S
C1626      C1627   1.416       .  A
C1627      C1628   1.398       .  A
C1627     Br1634   1.923       .  S
C1628      C1629   1.401       .  A
C1628      H1633   1.084       .  S
C1629      C1630   1.406       .  A
C1630     Br1631   1.919       .  S
C1635      C1636   1.410       .  A
C1635      C1640   1.403       .  A
C1635      H1642   1.083       .  S
C1636      C1637   1.421       .  A
C1637      C1638   1.392       .  A
C1637     Br1644   1.928       .  S
C1638      C1639   1.400       .  A
C1638      H1643   1.085       .  S
C1639      C1640   1.407       .  A
C1640     Br1641   1.916       .  S
C1645      C1646   1.409       .  A
C1645      C1650   1.401       .  A
C1645      H1652   1.083       .  S
C1646      C1647   1.419       .  A
C1647      C1648   1.392       .  A
C1647     Br1654   1.925       .  S
C1648      C1649   1.397       .  A
C1648      H1653   1.085       .  S
C1649      C1650   1.404       .  A
C1650     Br1651   1.915       .  S
C1655      C1656   1.398       .  A
C1655      C1660   1.395       .  A
C1655      H1662   1.084       .  S
C1656      C1657   1.407       .  A
C1657      C1658   1.401       .  A
C1657     Br1664   1.920       .  S
C1658      C1659   1.407       .  A
C1658      H1663   1.083       .  S
C1659      C1660   1.418       .  A
C1660     Br1661   1.924       .  S
