geometry optimzed in LAMMPS
_audit_creation_date              2020-12-01 
_audit_creation_method            'lammps2cif' 
_symmetry_space_group_name_H-M    'P1' 
_symmetry_Int_Tables_number       1 
_symmetry_cell_setting            triclinic 
loop_ 
_symmetry_equiv_pos_as_xyz 
  x,y,z 
_cell_length_a                    42.92128248 
_cell_length_b                    42.97495664468712 
_cell_length_c                    33.567308283854345 
_cell_angle_alpha                 89.9127500370946 
_cell_angle_beta                  90.24470259694677 
_cell_angle_gamma                 90.06961913246398 
loop_ 
_atom_site_label 
_atom_site_type_symbol 
_atom_site_fract_x 
_atom_site_fract_y 
_atom_site_fract_z 
_atom_site_charge 
Fe1        Fe  0.06560343  0.00590663  0.65309328     1.65800
Fe2        Fe  0.00964505  0.06154888  0.65228167     1.73200
Fe3        Fe  0.02646015  0.02432972  0.73806473     1.54400
O4          O  0.02092650  0.47737646  0.72770647    -0.83100
O5          O  0.00160375  0.08876542  0.70239668    -0.81500
O6          O  0.04655219  0.46355658  0.67241650    -0.85700
O7          O  0.09669533  0.00679944  0.69931433    -0.80500
O8          O  0.48075391  0.03281337  0.72926316    -0.82300
O9          O  0.05064074  0.08573161  0.64093510    -0.85000
C10         C  0.09661551  0.01070217  0.73659432     0.95700
C11         C  0.02913483  0.45719364  0.70225095     1.03200
O12         O  0.03422351  0.03035275  0.68101448    -1.14000
O13         O  0.51002392  0.04221611  0.59550162    -0.76400
O14         O  0.04056971  0.99966866  0.60090973    -0.79900
O15         O  0.07226500  0.01776615  0.75557352    -0.80600
C16         C  0.02187958  0.01653001  0.58134005     0.94600
O17         O  0.08639481  0.04780939  0.63329334    -0.78600
O18         O  0.46961553  0.04017879  0.66476117    -0.83800
C19         C  0.01269553  0.09106075  0.73736641     0.97300
C20         C  0.46168259  0.03327809  0.70019955     1.03200
O21         O  0.03101368  0.07083530  0.75155600    -0.79400
C22         C  0.07857624  0.07672446  0.63410302     1.01500
Fe23       Fe  0.18941341  0.24200701  0.65581917     1.65800
Fe24       Fe  0.24560251  0.18660361  0.65548258     1.73200
Fe25       Fe  0.22911391  0.22661115  0.74053374     1.54400
O26         O  0.22431587  0.27387206  0.73111846    -0.83100
O27         O  0.24541585  0.15575850  0.70209680    -0.81500
O28         O  0.21384141  0.28264380  0.66663601    -0.85700
O29         O  0.16319372  0.25015759  0.70679630    -0.80500
O30         O  0.27522133  0.23245789  0.72970203    -0.82300
O31         O  0.20350680  0.16567587  0.63631658    -0.85000
C32         C  0.16199819  0.23959157  0.74207932     0.95700
C33         C  0.22323234  0.29157763  0.70076052     1.03200
O34         O  0.22151832  0.21801344  0.68388209    -1.14000
O35         O  0.25094599  0.21185573  0.60345061    -0.76400
O36         O  0.20876844  0.24081312  0.59913851    -0.79900
O37         O  0.18300403  0.22208762  0.75608827    -0.80600
C38         C  0.23358631  0.23025078  0.58412594     0.94600
O39         O  0.16526921  0.20087404  0.64519013    -0.78600
O40         O  0.28821517  0.20619030  0.67464430    -0.83800
C41         C  0.24268739  0.15641632  0.73958908     0.97300
C42         C  0.29495779  0.22421553  0.70380727     1.03200
O43         O  0.23635231  0.18106297  0.75840896    -0.79400
C44         C  0.17450065  0.17319047  0.63743475     1.01500
Fe45       Fe  0.26000799  0.31202000  0.35222163     1.65800
Fe46       Fe  0.31576921  0.25626115  0.35316373     1.73200
Fe47       Fe  0.27805841  0.27237470  0.26722903     1.54400
O48         O  0.23146609  0.26722889  0.27615534    -0.83100
O49         O  0.34287070  0.24777763  0.30324798    -0.81500
O50         O  0.21754364  0.29317016  0.33111840    -0.85700
O51         O  0.26146647  0.34303254  0.30603081    -0.80500
O52         O  0.28201843  0.22508277  0.27667446    -0.82300
O53         O  0.33997468  0.29716584  0.36422653    -0.85000
C54         C  0.26502086  0.34266460  0.26866939     0.95700
C55         C  0.21118916  0.27564313  0.30130156     1.03200
O56         O  0.28441894  0.28056974  0.32423358    -1.14000
O57         O  0.29540391  0.25761197  0.40914668    -0.76400
O58         O  0.25319116  0.28638820  0.40378104    -0.79900
O59         O  0.27183387  0.31819924  0.24968114    -0.80600
C60         C  0.27024911  0.26794100  0.42346724     0.94600
O61         O  0.30197470  0.33259851  0.37300670    -0.78600
O62         O  0.29134682  0.21578769  0.34138303    -0.83800
C63         C  0.34498446  0.25783249  0.26781793     0.97300
C64         C  0.28271558  0.20711461  0.30680374     1.03200
O65         O  0.32472552  0.27591742  0.25309590    -0.79400
C66         C  0.33095560  0.32492347  0.37183428     1.01500
Fe67       Fe  0.49521324  0.43687699  0.34713972     1.65800
Fe68       Fe  0.43852276  0.49173835  0.34723199     1.73200
Fe69       Fe  0.47550123  0.47145716  0.26142799     1.54400
O70         O  0.02374876  0.46526502  0.27072684    -0.83100
O71         O  0.40610402  0.48968003  0.30221655    -0.81500
O72         O  0.03533207  0.46245893  0.33512485    -0.85700
O73         O  0.00290727  0.40887354  0.29826375    -0.80500
O74         O  0.48168263  0.01618773  0.27108224    -0.82300
O75         O  0.41883091  0.45006580  0.36948035    -0.85000
C76         C  0.48896360  0.40520082  0.26386271     0.95700
C77         C  0.04189603  0.47094978  0.29970071     1.03200
O78         O  0.46916431  0.46687556  0.31881160    -1.14000
O79         O  0.46351033  0.99748668  0.40090356    -0.76400
O80         O  0.49528440  0.45793070  0.40250555    -0.79900
O81         O  0.46962226  0.42471815  0.25025231    -0.80600
C82         C  0.48427445  0.48256433  0.41728942     0.94600
O83         O  0.45483549  0.41234204  0.36115701    -0.78600
O84         O  0.45792391  0.03192027  0.32698794    -0.83800
C85         C  0.40593720  0.48569179  0.26489441     0.97300
C86         C  0.47493529  0.03709401  0.29634680     1.03200
O87         O  0.42999791  0.47862781  0.24560155    -0.79400
C88         C  0.42699043  0.42122061  0.36917534     1.01500
Fe89       Fe  0.43963171  0.25732747  0.85026844     1.65800
Fe90       Fe  0.99524612  0.31326697  0.85085431     1.73200
Fe91       Fe  0.48417500  0.27075015  0.76715307     1.54400
O92         O  0.48570025  0.22433421  0.77947359    -0.83100
O93         O  0.49727192  0.34284881  0.80276627    -0.81500
O94         O  0.45895218  0.21433945  0.83514910    -0.85700
O95         O  0.41112442  0.25631436  0.80081985    -0.80500
O96         O  0.03082709  0.26856903  0.78139521    -0.82300
O97         O  0.45395500  0.33563018  0.86708844    -0.85000
C98         C  0.41354452  0.26008292  0.76353907     0.95700
C99         C  0.47595648  0.20590263  0.80607175     1.03200
O100        O  0.47310371  0.28072078  0.82302704    -1.14000
O101        O  0.99686891  0.29110489  0.90575232    -0.76400
O102        O  0.46244444  0.25386208  0.90458451    -0.79900
O103        O  0.43891656  0.26707144  0.74669696    -0.80600
C104        C  0.48439540  0.26816024  0.92205849     0.94600
O105        O  0.41730845  0.29856091  0.86653377    -0.78600
O106        O  0.03876967  0.29387244  0.83873312    -0.83800
C107        C  0.49259367  0.34127976  0.76551138     0.97300
C108        C  0.04835328  0.27777779  0.80941047     1.03200
O109        O  0.48519206  0.31631300  0.74787784    -0.79400
C110        C  0.42561284  0.32694957  0.87048544     1.01500
Fe111      Fe  0.31499547  0.49234343  0.85330893     1.65800
Fe112      Fe  0.25938599  0.43600044  0.85193283     1.73200
Fe113      Fe  0.28124697  0.47016369  0.76648971     1.54400
O114        O  0.28210056  0.01843572  0.77245349    -0.83100
O115        O  0.25412368  0.40726571  0.80340686    -0.81500
O116        O  0.29367252  0.03235335  0.83520142    -0.85700
O117        O  0.34555322  0.49804883  0.80690074    -0.80500
O118        O  0.23365689  0.46721099  0.77075465    -0.82300
O119        O  0.30063788  0.41315156  0.86837345    -0.85000
C120        C  0.34817645  0.49008332  0.77086949     0.95700
C121        C  0.28269978  0.03837046  0.80050062     1.03200
O122        O  0.28544997  0.46628950  0.82421801    -1.14000
O123        O  0.25652726  0.45751653  0.90653861    -0.76400
O124        O  0.29122152  0.49508092  0.90649111    -0.79900
O125        O  0.32775203  0.47399120  0.75342190    -0.80600
C126        C  0.26979421  0.48006663  0.92348736     0.94600
O127        O  0.33756038  0.45095332  0.87052978    -0.78600
O128        O  0.21943979  0.46012441  0.83408473    -0.83800
C129        C  0.26605098  0.40375648  0.76935044     0.97300
C130        C  0.21372864  0.46925721  0.79853279     1.03200
O131        O  0.28495097  0.42327726  0.75509487    -0.79400
C132        C  0.32906780  0.42220231  0.87295662     1.01500
Fe133      Fe  0.00895473  0.18435768  0.15222682     1.65800
Fe134      Fe  0.06513810  0.24017804  0.15373510     1.73200
Fe135      Fe  0.02214815  0.22464228  0.23666903     1.54400
O136        O  0.47486572  0.22281412  0.22612707    -0.83100
O137        O  0.09591326  0.23740871  0.20085559    -0.81500
O138        O  0.46636001  0.20307032  0.16553248    -0.85700
O139        O  0.00248571  0.15724261  0.20298781    -0.80500
O140        O  0.01406972  0.27030958  0.22351899    -0.82300
O141        O  0.08523957  0.19894432  0.13235053    -0.85000
C142        C  0.01319197  0.15641820  0.23832677     0.95700
C143        C  0.45697230  0.21597809  0.19741488     1.03200
O144        O  0.03249369  0.21647116  0.18078970    -1.14000
O145        O  0.03963268  0.24725334  0.10194182    -0.76400
O146        O  0.00992808  0.20541798  0.09663504    -0.79900
O147        O  0.02864305  0.17875626  0.25326430    -0.80600
C148        C  0.02076574  0.23046145  0.08235506     0.94600
O149        O  0.05019907  0.16065814  0.14075156    -0.78600
O150        O  0.04740039  0.28268617  0.17458926    -0.83800
C151        C  0.09298981  0.23859563  0.23832539     0.97300
C152        C  0.02666243  0.28986887  0.20025214     1.03200
O153        O  0.06700272  0.23528919  0.25550230    -0.79400
C154        C  0.07775700  0.17005450  0.13266592     1.01500
Fe155      Fe  0.24493248  0.06383135  0.15161443     1.65800
Fe156      Fe  0.18929944  0.00778284  0.15366707     1.73200
Fe157      Fe  0.22620525  0.03101595  0.23856483     1.54400
O158        O  0.27336840  0.03693556  0.23165907    -0.83100
O159        O  0.15702043  0.01038751  0.19850540    -0.81500
O160        O  0.28462104  0.03850205  0.16701735    -0.85700
O161        O  0.25224408  0.09265726  0.20019699    -0.80500
O162        O  0.23168335  0.48332253  0.23458689    -0.82300
O163        O  0.16905120  0.04845483  0.12995257    -0.85000
C164        C  0.23973338  0.09678950  0.23391417     0.95700
C165        C  0.29140535  0.03095551  0.20280403     1.03200
O166        O  0.21962271  0.03395162  0.18106093    -1.14000
O167        O  0.21408610  0.49892739  0.10363655    -0.76400
O168        O  0.24450725  0.04182367  0.09707035    -0.79900
O169        O  0.22010844  0.07778839  0.24771208    -0.80600
C170        C  0.23418086  0.01649206  0.08334278     0.94600
O171        O  0.20401742  0.08744626  0.13731118    -0.78600
O172        O  0.20879777  0.46611904  0.17866206    -0.83800
C173        C  0.15683501  0.01595142  0.23550035     0.97300
C174        C  0.22519083  0.46168203  0.21015968     1.03200
O175        O  0.18079574  0.02427774  0.25445484    -0.79400
C176        C  0.17637319  0.07752076  0.12975335     1.01500
C177        C  0.13403136  0.15524904  0.12129752    -0.14800
C178        C  0.10260465  0.14630809  0.12531759     0.07300
C179        C  0.09565842  0.11427044  0.12607637    -0.14800
C180        C  0.11948556  0.09193281  0.12494353    -0.14800
C181        C  0.15103194  0.10092455  0.12324460     0.07300
C182        C  0.15788044  0.13290725  0.12040344    -0.14800
H183        H  0.14040360  0.17962853  0.12058113     0.11300
H184        H  0.07181940  0.10637641  0.12913286     0.11300
H185        H  0.11318418  0.06760208  0.12743306     0.11300
H186        H  0.18181950  0.14080749  0.11906658     0.11300
C187        C  0.26811568  0.02242915  0.02284489    -0.14800
C188        C  0.24397715  0.00662881  0.04271338     0.07300
C189        C  0.22857246  0.48013786  0.02396410    -0.14800
C190        C  0.23741260  0.47176827  0.98523251    -0.14800
C191        C  0.26008692  0.48903848  0.96448043     0.07300
C192        C  0.27694340  0.01385864  0.98427413    -0.14800
H193        H  0.28027673  0.04150933  0.03712656     0.11300
H194        H  0.21102123  0.46639432  0.03900797     0.11300
H195        H  0.22649940  0.45169037  0.97157816     0.11300
H196        H  0.29564039  0.02657848  0.97003130     0.11300
C197        C  0.01532912  0.27565756  0.98460953    -0.14800
C198        C  0.49384451  0.25827006  0.96302266     0.07300
C199        C  0.47830146  0.23377678  0.98252460    -0.14800
C200        C  0.48708565  0.22456562  0.02105172    -0.14800
C201        C  0.01103139  0.24028806  0.04143281     0.07300
C202        C  0.02433182  0.26660560  0.02315105    -0.14800
H203        H  0.02617983  0.29599443  0.97154908     0.11300
H204        H  0.45925336  0.22166530  0.96803078     0.11300
H205        H  0.47454325  0.20562478  0.03503536     0.11300
H206        H  0.04186236  0.28020939  0.03856815     0.11300
C207        C  0.36925211  0.34301998  0.87866086    -0.14800
C208        C  0.40103857  0.35116622  0.87723578     0.07300
C209        C  0.40880698  0.38301627  0.87861713    -0.14800
C210        C  0.38554117  0.40598715  0.87941525    -0.14800
C211        C  0.35372471  0.39787546  0.87883042     0.07300
C212        C  0.34598112  0.36599304  0.87944238    -0.14800
H213        H  0.36222381  0.31882621  0.87765457     0.11300
H214        H  0.43293857  0.39033212  0.87754058     0.11300
H215        H  0.39257021  0.43018849  0.87884040     0.11300
H216        H  0.32183151  0.35868333  0.87895195     0.11300
C217        C  0.02804072  0.10663825  0.27184054    -0.14800
C218        C  0.00543535  0.12900765  0.26264204     0.07300
C219        C  0.48685287  0.12489531  0.29157822    -0.14800
C220        C  0.47651996  0.09571339  0.30526673    -0.14800
C221        C  0.48820074  0.06832759  0.28807045     0.07300
C222        C  0.01900268  0.07766963  0.28713317    -0.14800
H223        H  0.05227741  0.11075143  0.26465586     0.11300
H224        H  0.47612182  0.14583529  0.30302829     0.11300
H225        H  0.45832299  0.09461031  0.32746214     0.11300
H226        H  0.03651873  0.05983853  0.29149889     0.11300
C227        C  0.03957109  0.34448823  0.21713353    -0.14800
C228        C  0.01723127  0.32241347  0.20583010     0.07300
C229        C  0.98538783  0.32971579  0.20921641    -0.14800
C230        C  0.97601176  0.35806753  0.22574266    -0.14800
C231        C  0.99842733  0.37891728  0.24019034     0.07300
C232        C  0.03021514  0.37239575  0.23469766    -0.14800
H233        H  0.06417241  0.33903873  0.21557578     0.11300
H234        H  0.96781787  0.31267516  0.20121393     0.11300
H235        H  0.95143743  0.36266817  0.22989235     0.11300
H236        H  0.04783451  0.38836838  0.24562471     0.11300
C237        C  0.09852630  0.48474670  0.31204540    -0.14800
C238        C  0.07108642  0.48719077  0.28937727     0.07300
C239        C  0.07171064  0.50385073  0.25323628    -0.14800
C240        C  0.09940517  0.51529985  0.23813050    -0.14800
C241        C  0.12727884  0.51047423  0.25876232     0.07300
C242        C  0.12664857  0.49640094  0.29669466    -0.14800
H243        H  0.09859542  0.47228481  0.34009016     0.11300
H244        H  0.05084921  0.50676011  0.23533506     0.11300
H245        H  0.09928704  0.52643490  0.20914031     0.11300
H246        H  0.14810719  0.49242418  0.31302268     0.11300
C247        C  0.34837775  0.98539860  0.26418538    -0.14800
C248        C  0.37650996  0.99103202  0.24473849     0.07300
C249        C  0.37609428  0.50684996  0.20663778    -0.14800
C250        C  0.34786827  0.51814615  0.19110178    -0.14800
C251        C  0.32061868  0.01493988  0.21352135     0.07300
C252        C  0.32081963  0.99712306  0.24872559    -0.14800
H253        H  0.34790326  0.97320645  0.29245468     0.11300
H254        H  0.39763589  0.51237033  0.19146267     0.11300
H255        H  0.34793224  0.53199923  0.16414247     0.11300
H256        H  0.29968253  0.99347248  0.26560346     0.11300
C257        C  0.34791126  0.38105250  0.38287733    -0.14800
C258        C  0.35557373  0.34946805  0.37731606     0.07300
C259        C  0.38729502  0.34180889  0.37293420    -0.14800
C260        C  0.41038936  0.36491928  0.37233447    -0.14800
C261        C  0.40269614  0.39662098  0.37610172     0.07300
C262        C  0.37113265  0.40428796  0.38228975    -0.14800
H263        H  0.32382170  0.38798665  0.38621425     0.11300
H264        H  0.39433403  0.31788982  0.36842241     0.11300
H265        H  0.43427474  0.35789146  0.36735512     0.11300
H266        H  0.36416457  0.42838051  0.38518851     0.11300
C267        C  0.24051292  0.37410216  0.21357586    -0.14800
C268        C  0.25981103  0.37224777  0.24752778     0.07300
C269        C  0.26964040  0.39965308  0.26603929    -0.14800
C270        C  0.25897191  0.42828124  0.25271217    -0.14800
C271        C  0.23809801  0.43055877  0.22031598     0.07300
C272        C  0.22967235  0.40318207  0.19998535    -0.14800
H273        H  0.23229166  0.35307080  0.19919611     0.11300
H274        H  0.28444773  0.39882162  0.29225314     0.11300
H275        H  0.26627292  0.44863278  0.26920474     0.11300
H276        H  0.21382081  0.40412211  0.17485084     0.11300
C277        C  0.24286685  0.16541144  0.30444489    -0.14800
C278        C  0.27388702  0.17494818  0.29913700     0.07300
C279        C  0.29382691  0.15724968  0.27546273    -0.14800
C280        C  0.28253450  0.13139100  0.25524168    -0.14800
C281        C  0.25108914  0.12272953  0.25844558     0.07300
C282        C  0.23155836  0.13904373  0.28452344    -0.14800
H283        H  0.22694614  0.17954707  0.32162470     0.11300
H284        H  0.31757809  0.16479307  0.27031123     0.11300
H285        H  0.29822234  0.11868656  0.23599719     0.11300
H286        H  0.20730061  0.13254172  0.28759072     0.11300
C287        C  0.40696161  0.20386852  0.22891466    -0.14800
C288        C  0.42401497  0.22336191  0.20365192     0.07300
C289        C  0.41319043  0.25370645  0.19621583    -0.14800
C290        C  0.38640894  0.26484619  0.21539725    -0.14800
C291        C  0.37082782  0.24599632  0.24312539     0.07300
C292        C  0.38071056  0.21508949  0.24855223    -0.14800
H293        H  0.41543925  0.18076005  0.23599317     0.11300
H294        H  0.42671733  0.26946167  0.17791264     0.11300
H295        H  0.37914460  0.28868636  0.21061900     0.11300
H296        H  0.36876197  0.19989346  0.26927717     0.11300
C297        C  0.17603717  0.23531109  0.27317902    -0.14800
C298        C  0.17927092  0.26372215  0.29373476     0.07300
C299        C  0.15252044  0.28157921  0.30106293    -0.14800
C300        C  0.12352835  0.27216970  0.28543168    -0.14800
C301        C  0.12114440  0.24498227  0.26222581     0.07300
C302        C  0.14742265  0.22626567  0.25721085    -0.14800
H303        H  0.19615353  0.22079177  0.26749280     0.11300
H304        H  0.15436662  0.30363379  0.31646349     0.11300
H305        H  0.10346605  0.28713759  0.28913296     0.11300
H306        H  0.14607059  0.20526540  0.23945230     0.11300
C307        C  0.27082394  0.22929661  0.52604679    -0.14800
C308        C  0.24268046  0.23970576  0.54280488     0.07300
C309        C  0.22352488  0.25933179  0.51967049    -0.14800
C310        C  0.23235124  0.26840160  0.48107852    -0.14800
C311        C  0.26061075  0.25813570  0.46445095     0.07300
C312        C  0.27964203  0.23836079  0.48751342    -0.14800
H313        H  0.28622037  0.21417001  0.54280220     0.11300
H314        H  0.20165543  0.26777927  0.53140754     0.11300
H315        H  0.21699812  0.28354233  0.46427923     0.11300
H316        H  0.30152905  0.22990169  0.47584394     0.11300
C317        C  0.12841935  0.28151910  0.76879826    -0.14800
C318        C  0.13611342  0.24976211  0.76754101     0.07300
C319        C  0.11763374  0.22826820  0.78818265    -0.14800
C320        C  0.09005199  0.23812220  0.80640975    -0.14800
C321        C  0.08132040  0.26964957  0.80531792     0.07300
C322        C  0.10134925  0.29143719  0.78788554    -0.14800
H323        H  0.14263239  0.29848264  0.75333551     0.11300
H324        H  0.12322498  0.20370965  0.78755037     0.11300
H325        H  0.07436670  0.22086909  0.81872444     0.11300
H326        H  0.09459070  0.31566798  0.78573753     0.11300
C327        C  0.35904585  0.27316048  0.74735764    -0.14800
C328        C  0.38538634  0.25523830  0.73940180     0.07300
C329        C  0.38285488  0.22940266  0.71388077    -0.14800
C330        C  0.35357889  0.22012643  0.69916026    -0.14800
C331        C  0.32676795  0.23676945  0.70986284     0.07300
C332        C  0.33013821  0.26430278  0.73228838    -0.14800
H333        H  0.36058021  0.29308575  0.76702919     0.11300
H334        H  0.40305922  0.21510152  0.70789963     0.11300
H335        H  0.35165615  0.19887828  0.68202432     0.11300
H336        H  0.30998666  0.27802685  0.74041966     0.11300
C337        C  0.26644538  0.12560931  0.79600450    -0.14800
C338        C  0.24804233  0.12699633  0.76117723     0.07300
C339        C  0.23848438  0.09930738  0.74307719    -0.14800
C340        C  0.24871771  0.07085738  0.75759093    -0.14800
C341        C  0.26911356  0.06913482  0.79048699     0.07300
C342        C  0.27698923  0.09671898  0.81064737    -0.14800
H343        H  0.27425436  0.14683022  0.81028950     0.11300
H344        H  0.22410145  0.09973268  0.71646456     0.11300
H345        H  0.24152099  0.05010819  0.74178634     0.11300
H346        H  0.29243573  0.09608648  0.83621161     0.11300
C347        C  0.21225454  0.34234569  0.72986380    -0.14800
C348        C  0.23234024  0.32381882  0.70751765     0.07300
C349        C  0.26345641  0.33310172  0.70211724    -0.14000
C350        C  0.27466191  0.36017013  0.72060658    -0.14800
C351        C  0.25490836  0.37743408  0.74534861     0.07300
C352        C  0.22342507  0.36889767  0.74864368    -0.14800
H353        H  0.18843426  0.33506183  0.73506933     0.11300
H354        H  0.27946671  0.31836783  0.68594283     0.11300
H355        H  0.29898208  0.36648293  0.71763616     0.11300
H356        H  0.20762463  0.38224324  0.76700169     0.11300
C357        C  0.02624237  0.98094268  0.52163101    -0.14800
C358        C  0.01295711  0.00728422  0.53980905     0.07300
C359        C  0.48914251  0.52616879  0.51612464    -0.14800
C360        C  0.48082809  0.51810022  0.47699758    -0.14800
C361        C  0.49393008  0.49188490  0.45843963     0.07300
C362        C  0.01788810  0.97229294  0.48267048    -0.14800
H363        H  0.04316176  0.96691936  0.53752944     0.11300
H364        H  0.47846096  0.54647219  0.52935879     0.11300
H365        H  0.46391400  0.53232539  0.46138835     0.11300
H366        H  0.02857677  0.95183501  0.46983659     0.11300
C367        C  0.13516124  0.09341928  0.62885690    -0.14800
C368        C  0.10326880  0.10120469  0.62917270     0.07300
C369        C  0.09530339  0.13301138  0.62899825    -0.14800
C370        C  0.11835941  0.15620493  0.63002005    -0.14800
C371        C  0.15023670  0.14845331  0.63121114     0.07300
C372        C  0.15828573  0.11668335  0.62984200    -0.14800
H373        H  0.14232718  0.06927316  0.62938840     0.11300
H374        H  0.07110550  0.14010119  0.62935970     0.11300
H375        H  0.11108316  0.18030733  0.63103964     0.11300
H376        H  0.18249881  0.10968652  0.63101466     0.11300
C377        C  0.15390336  0.01351147  0.73800643    -0.14800
C378        C  0.12634094  0.00568274  0.75768570     0.07300
C379        C  0.12757870  0.49080867  0.79393994    -0.14800
C380        C  0.15609791  0.47976641  0.80923363    -0.14800
C381        C  0.18349551  0.48323158  0.78688195     0.07300
C382        C  0.18217527  0.49990225  0.75075355    -0.14800
H383        H  0.15328734  0.02658555  0.71037780     0.11300
H384        H  0.10633196  0.48630783  0.81026711     0.11300
H385        H  0.15648201  0.46738039  0.83733418     0.11300
H386        H  0.20283105  0.50372594  0.73299071     0.11300
C387        C  0.41716773  0.04048412  0.74406437    -0.14800
C388        C  0.42942788  0.02592699  0.71037133     0.07300
C389        C  0.41370691  0.49791910  0.69577833    -0.14800
C390        C  0.38727023  0.48624396  0.71524153    -0.14800
C391        C  0.37503036  0.50204385  0.74832074     0.07300
C392        C  0.39133970  0.02818390  0.76305631    -0.14800
H393        H  0.42882458  0.06040510  0.75717561     0.11300
H394        H  0.42449010  0.48430746  0.67247684     0.11300
H395        H  0.37733113  0.46429614  0.70572247     0.11300
H396        H  0.38303194  0.03973786  0.78962526     0.11300
C397        C  0.47345297  0.12777213  0.75996668    -0.14800
C398        C  0.00203707  0.11711167  0.76234094     0.07300
C399        C  0.02266401  0.13373447  0.78688126    -0.14800
C400        C  0.51573071  0.16428755  0.80264605    -0.14800
C401        C  0.48425840  0.17321938  0.80023715     0.07300
C402        C  0.46302463  0.15415696  0.78002900    -0.14800
H403        H  0.45687812  0.11423522  0.74277436     0.11300
H404        H  0.04691845  0.12699300  0.78899225     0.11300
H405        H  0.53261159  0.17934287  0.81704708     0.11300
H406        H  0.43890500  0.16117916  0.77677359     0.11300
C407        C  0.48109483  0.39679071  0.75421458    -0.14800
C408        C  0.99931278  0.36677764  0.73956187     0.07300
C409        C  0.02539505  0.36939925  0.71450121    -0.14800
C410        C  0.03438709  0.39861171  0.69946406    -0.14800
C411        C  0.01726213  0.42530489  0.70945015     0.07300
C412        C  0.48960567  0.42563325  0.73887442    -0.14800
H413        H  0.46310882  0.39556296  0.77672458     0.11300
H414        H  0.03996853  0.34932041  0.70893016     0.11300
H415        H  0.05568313  0.40060809  0.68247235     0.11300
H416        H  0.47747365  0.44602019  0.74968872     0.11300
Fe417      Fe  0.06552996  0.50584145  0.65175231     1.65800
Fe418      Fe  0.00923802  0.56142340  0.65158576     1.73200
Fe419      Fe  0.02655709  0.52386977  0.73699172     1.54400
O420        O  0.02065175  0.97786943  0.72909259    -0.83100
O421        O  0.00217123  0.58899782  0.70146636    -0.81500
O422        O  0.04597255  0.96373015  0.67368334    -0.85700
O423        O  0.09684926  0.50698822  0.69773644    -0.80500
O424        O  0.47881117  0.53259023  0.72821773    -0.82300
O425        O  0.05021500  0.58534392  0.63917392    -0.85000
C426        C  0.09675480  0.51062486  0.73508128     0.95700
C427        C  0.02848303  0.95759260  0.70359322     1.03200
O428        O  0.03404405  0.53012445  0.67996016    -1.14000
O429        O  0.50881035  0.54179230  0.59425780    -0.76400
O430        O  0.04001068  0.49947912  0.60013039    -0.79900
O431        O  0.07237191  0.51740220  0.75411886    -0.80600
C432        C  0.02070408  0.51603210  0.58114017     0.94600
O433        O  0.08604156  0.54757899  0.63141256    -0.78600
O434        O  0.46796449  0.53981421  0.66353769    -0.83800
C435        C  0.01355909  0.59107016  0.73626306     0.97300
C436        C  0.45988141  0.53302107  0.69898704     1.03200
O437        O  0.03116504  0.57032433  0.75069177    -0.79400
C438        C  0.07811193  0.57642079  0.63200263     1.01500
Fe439      Fe  0.18947591  0.74125417  0.65386620     1.65800
Fe440      Fe  0.24466792  0.68508123  0.65540736     1.73200
Fe441      Fe  0.22820634  0.72679190  0.73967109     1.54400
O442        O  0.22333350  0.77383564  0.72984975    -0.83100
O443        O  0.24264576  0.65468168  0.70231879    -0.81500
O444        O  0.21356102  0.78230149  0.66521064    -0.85700
O445        O  0.16265894  0.74905115  0.70373510    -0.80500
O446        O  0.27458986  0.73261479  0.72872302    -0.82300
O447        O  0.20299273  0.66463509  0.63474628    -0.85000
C448        C  0.16088494  0.74009548  0.73966573     0.95700
C449        C  0.22211216  0.79156376  0.69958907     1.03200
O450        O  0.22086855  0.71730399  0.68300067    -1.14000
O451        O  0.25153003  0.70999809  0.60330516    -0.76400
O452        O  0.20990481  0.73971359  0.59823280    -0.79900
O453        O  0.18175492  0.72319903  0.75543239    -0.80600
C454        C  0.23462372  0.72864371  0.58368456     0.94600
O455        O  0.16519293  0.70027286  0.64263488    -0.78600
O456        O  0.28710831  0.70360950  0.67563791    -0.83800
C457        C  0.24037126  0.65610281  0.73981598     0.97300
C458        C  0.29411329  0.72262236  0.70354732     1.03200
O459        O  0.23525847  0.68129063  0.75814508    -0.79400
C460        C  0.17413845  0.67248451  0.63510507     1.01500
Fe461      Fe  0.25920521  0.81093999  0.35306107     1.65800
Fe462      Fe  0.31599489  0.75615263  0.35267520     1.73200
Fe463      Fe  0.27861522  0.77334288  0.26737993     1.54400
O464        O  0.23234666  0.76574048  0.27607575    -0.83100
O465        O  0.34351113  0.74959517  0.30245745    -0.81500
O466        O  0.21726967  0.79136115  0.33082641    -0.85700
O467        O  0.26009986  0.84310917  0.30802345    -0.80500
O468        O  0.28530028  0.72611816  0.27481030    -0.82300
O469        O  0.33929733  0.79702743  0.36528156    -0.85000
C470        C  0.26292563  0.84311472  0.27055894     0.95700
C471        C  0.21157101  0.77367968  0.30086488     1.03200
O472        O  0.28434546  0.78055341  0.32450131    -1.14000
O473        O  0.29561796  0.75611109  0.40853486    -0.76400
O474        O  0.25288456  0.78419338  0.40366043    -0.79900
O475        O  0.26985050  0.81895211  0.25109130    -0.80600
C476        C  0.27033963  0.76591160  0.42301947     0.94600
O477        O  0.30080920  0.83187087  0.37472618    -0.78600
O478        O  0.29219720  0.71566130  0.33955673    -0.83800
C479        C  0.34586920  0.76194830  0.26824568     0.97300
C480        C  0.28525636  0.70745151  0.30425109     1.03200
O481        O  0.32512289  0.77995929  0.25453289    -0.79400
C482        C  0.32989748  0.82449890  0.37357471     1.01500
Fe483      Fe  0.49455117  0.93583592  0.34981245     1.65800
Fe484      Fe  0.43793884  0.99057607  0.34917177     1.73200
Fe485      Fe  0.47507193  0.96965963  0.26355505     1.54400
O486        O  0.02603210  0.96355861  0.27100728    -0.83100
O487        O  0.40600964  0.98946156  0.30351809    -0.81500
O488        O  0.03723119  0.96217075  0.33526377    -0.85700
O489        O  0.00433090  0.90878883  0.29688147    -0.80500
O490        O  0.48218972  0.51812658  0.26898147    -0.82300
O491        O  0.41772523  0.94909088  0.37070188    -0.85000
C492        C  0.48971414  0.90410621  0.26614261     0.95700
C493        C  0.04372561  0.97051336  0.29983500     1.03200
O494        O  0.46849483  0.96542539  0.32103326    -1.14000
O495        O  0.46502348  0.49912428  0.39813260    -0.76400
O496        O  0.49425300  0.95671458  0.40521308    -0.79900
O497        O  0.46975839  0.92290344  0.25230606    -0.80600
C498        C  0.48270923  0.98100141  0.42019137     0.94600
O499        O  0.45398113  0.91134020  0.36373262    -0.78600
O500        O  0.45742910  0.53356401  0.32429024    -0.83800
C501        C  0.40571452  0.98495253  0.26629617     0.97300
C502        C  0.47460212  0.53906839  0.29385245     1.03200
O503        O  0.42955454  0.97674766  0.24725069    -0.79400
C504        C  0.42600075  0.92029036  0.37112877     1.01500
Fe505      Fe  0.43824669  0.75627595  0.84967248     1.65800
Fe506      Fe  0.99481115  0.81198070  0.85109524     1.73200
Fe507      Fe  0.47915650  0.77006084  0.76624178     1.54400
O508        O  0.47062672  0.72326579  0.77426384    -0.83100
O509        O  0.48908811  0.84364872  0.80328347    -0.81500
O510        O  0.46189003  0.71499262  0.83879644    -0.85700
O511        O  0.41177927  0.75012246  0.79826069    -0.80500
O512        O  0.02904585  0.77717449  0.77654506    -0.82300
O513        O  0.45213940  0.83187220  0.87215646    -0.85000
C514        C  0.41124739  0.76131722  0.76319837     0.95700
C515        C  0.46985258  0.70553524  0.80445703     1.03200
O516        O  0.47033452  0.78009557  0.82198798    -1.14000
O517        O  0.99431111  0.79037203  0.90640353    -0.76400
O518        O  0.45898320  0.75747536  0.90548554    -0.79900
O519        O  0.43359737  0.77706811  0.74897549    -0.80600
C520        C  0.48415057  0.76806609  0.91994400     0.94600
O521        O  0.41403891  0.79706999  0.86131421    -0.78600
O522        O  0.03705345  0.78994736  0.84016632    -0.83800
C523        C  0.49166456  0.84102974  0.76590147     0.97300
C524        C  0.04677530  0.78064182  0.80651250     1.03200
O525        O  0.49041169  0.81498772  0.74838011    -0.79400
C526        C  0.42325986  0.82437814  0.87081429     1.01500
Fe527      Fe  0.31670073  0.99177896  0.85329013     1.65800
Fe528      Fe  0.26014201  0.93645601  0.85144816     1.73200
Fe529      Fe  0.28320158  0.97092069  0.76588901     1.54400
O530        O  0.27660222  0.51751358  0.77305887    -0.83100
O531        O  0.25537232  0.90712306  0.80353984    -0.81500
O532        O  0.29180237  0.53252205  0.83428193    -0.85700
O533        O  0.34665315  0.99744647  0.80645720    -0.80500
O534        O  0.23552726  0.97185294  0.77048182    -0.82300
O535        O  0.30095008  0.91350958  0.86923404    -0.85000
C536        C  0.35001254  0.98860855  0.77087316     0.95700
C537        C  0.27887215  0.53790985  0.80049251     1.03200
O538        O  0.28677711  0.96630881  0.82378176    -1.14000
O539        O  0.25669453  0.95889093  0.90550324    -0.76400
O540        O  0.29370469  0.99416622  0.90694110    -0.79900
O541        O  0.33018383  0.97144230  0.75386317    -0.80600
C542        C  0.27121333  0.98031485  0.92323016     0.94600
O543        O  0.33896550  0.95019042  0.86993455    -0.78600
O544        O  0.22026974  0.96004239  0.83243888    -0.83800
C545        C  0.26543732  0.90408385  0.76843620     0.97300
C546        C  0.21496956  0.97112387  0.79768866     1.03200
O547        O  0.28312527  0.92405823  0.75268464    -0.79400
C548        C  0.32962773  0.92179741  0.87338821     1.01500
Fe549      Fe  0.00849966  0.68402730  0.15351027     1.65800
Fe550      Fe  0.06484037  0.74046643  0.15255795     1.73200
Fe551      Fe  0.02099937  0.72870985  0.23668857     1.54400
O552        O  0.48059380  0.73705035  0.22330977    -0.83100
O553        O  0.09414613  0.74138820  0.20122223    -0.81500
O554        O  0.46784526  0.70500141  0.17304532    -0.85700
O555        O  0.00665768  0.65621865  0.20359859    -0.80500
O556        O  0.01888683  0.77485554  0.22271544    -0.82300
O557        O  0.08647027  0.69896587  0.13605163    -0.85000
C558        C  0.01200160  0.65826588  0.24067254     0.95700
C559        C  0.46081735  0.72502021  0.19975367     1.03200
O560        O  0.03156382  0.71766989  0.18098119    -1.14000
O561        O  0.04107714  0.74373433  0.09902981    -0.76400
O562        O  0.00593918  0.70602463  0.09852185    -0.79900
O563        O  0.02039483  0.68334898  0.25739667    -0.80600
C564        C  0.01949569  0.72873560  0.08180447     0.94600
O565        O  0.05000236  0.66178355  0.13881874    -0.78600
O566        O  0.04630183  0.78382782  0.16734247    -0.83800
C567        C  0.09211868  0.73888129  0.23872730     0.97300
C568        C  0.02886613  0.79279262  0.19570270     1.03200
O569        O  0.06667485  0.73317260  0.25631989    -0.79400
C570        C  0.07815409  0.67048425  0.13369264     1.01500
Fe571      Fe  0.24410493  0.56263046  0.15184332     1.65800
Fe572      Fe  0.18859505  0.50682878  0.15497731     1.73200
Fe573      Fe  0.22601553  0.53022939  0.23962882     1.54400
O574        O  0.27313518  0.53497671  0.23170807    -0.83100
O575        O  0.15709085  0.50892900  0.20067474    -0.81500
O576        O  0.28373560  0.53715941  0.16678153    -0.85700
O577        O  0.25206729  0.59138853  0.19974393    -0.80500
O578        O  0.23278529  0.98431625  0.23342085    -0.82300
O579        O  0.16790560  0.54759850  0.13214029    -0.85000
C580        C  0.24092574  0.59591765  0.23408829     0.95700
C581        C  0.29085496  0.52939092  0.20239247     1.03200
O582        O  0.21899515  0.53310070  0.18202809    -1.14000
O583        O  0.21566965  0.99969518  0.10317605    -0.76400
O584        O  0.24311449  0.54081682  0.09745188    -0.79900
O585        O  0.22158600  0.57723272  0.24929410    -0.80600
C586        C  0.23251888  0.51567949  0.08365647     0.94600
O587        O  0.20325444  0.58642172  0.13803869    -0.78600
O588        O  0.20875373  0.96693184  0.17833462    -0.83800
C589        C  0.15665325  0.51538030  0.23743122     0.97300
C590        C  0.22545784  0.96252107  0.20961479     1.03200
O591        O  0.18042434  0.52460469  0.25617694    -0.79400
C592        C  0.17544930  0.57661409  0.13130889     1.01500
C593        C  0.13388182  0.65456813  0.12031671    -0.14800
C594        C  0.10254539  0.64622884  0.12675186     0.07300
C595        C  0.09526550  0.61437538  0.13019907    -0.14800
C596        C  0.11874060  0.59169671  0.12927687    -0.14800
C597        C  0.15025558  0.60015025  0.12497235     0.07300
C598        C  0.15739666  0.63186639  0.11951429    -0.14800
H599        H  0.14045633  0.67879395  0.11738336     0.11300
H600        H  0.07150000  0.60695348  0.13534242     0.11300
H601        H  0.11226891  0.56760558  0.13394725     0.11300
H602        H  0.18134710  0.63931475  0.11607603     0.11300
C603        C  0.26470987  0.52331393  0.02203152    -0.14800
C604        C  0.24208090  0.50607180  0.04285373     0.07300
C605        C  0.22897911  0.98192149  0.02294625    -0.14800
C606        C  0.23769392  0.97345411  0.98421478    -0.14800
C607        C  0.26176961  0.98934786  0.96431827     0.07300
C608        C  0.27361295  0.51489661  0.98347335    -0.14800
H609        H  0.27566353  0.54342871  0.03555015     0.11300
H610        H  0.21023446  0.96931290  0.03724134     0.11300
H611        H  0.22552552  0.95441844  0.96985460     0.11300
H612        H  0.29112442  0.52875141  0.96851567     0.11300
C613        C  0.01409187  0.77357615  0.98397759    -0.14800
C614        C  0.49356283  0.75855090  0.96098379     0.07300
C615        C  0.47552386  0.73711732  0.98274894    -0.14800
C616        C  0.48411682  0.72837411  0.02149751    -0.14800
C617        C  0.00997445  0.73808073  0.04065543     0.07300
C618        C  0.02281534  0.76474360  0.02264467    -0.14800
H619        H  0.02445414  0.79430236  0.97127002     0.11300
H620        H  0.45467827  0.72702690  0.96984861     0.11300
H621        H  0.46969167  0.71177262  0.03725442     0.11300
H622        H  0.03962465  0.77894383  0.03848763     0.11300
C623        C  0.36736169  0.84165193  0.87772822    -0.14800
C624        C  0.39933890  0.84893898  0.87849549     0.07300
C625        C  0.40798769  0.88042433  0.88253113    -0.14800
C626        C  0.38536768  0.90402805  0.88315778    -0.14800
C627        C  0.35342819  0.89682314  0.87996189     0.07300
C628        C  0.34477374  0.86520444  0.87854140    -0.14800
H629        H  0.35970419  0.81774113  0.87483821     0.11300
H630        H  0.43233803  0.88702472  0.88330734     0.11300
H631        H  0.39302906  0.92802190  0.88442153     0.11300
H632        H  0.32048804  0.85859146  0.87614565     0.11300
C633        C  0.02511355  0.60365534  0.25616044    -0.14800
C634        C  0.00727031  0.62997668  0.26456370     0.07300
C635        C  0.48410333  0.62743070  0.28708527    -0.14800
C636        C  0.47394105  0.59811225  0.30083459    -0.14800
C637        C  0.48713136  0.57071708  0.28540630     0.07300
C638        C  0.01598517  0.57457249  0.27030842    -0.14800
H639        H  0.04515362  0.60535038  0.23674093     0.11300
H640        H  0.47238482  0.64823461  0.29729366     0.11300
H641        H  0.45485614  0.59685069  0.32175756     0.11300
H642        H  0.02965657  0.55455328  0.26192176     0.11300
C643        C  0.04224688  0.84628404  0.21544997    -0.14800
C644        C  0.02019876  0.82556583  0.19991772     0.07300
C645        C  0.98846133  0.83372433  0.20024966    -0.14800
C646        C  0.97871920  0.86142753  0.21824305    -0.14800
C647        C  0.00061378  0.88061805  0.23716699     0.07300
C648        C  0.03249090  0.87349013  0.23428112    -0.14800
H649        H  0.06668699  0.84002568  0.21639619     0.11300
H650        H  0.97108582  0.81756806  0.18919383     0.11300
H651        H  0.95407276  0.86656775  0.22012919     0.11300
H652        H  0.04977034  0.88826992  0.24838972     0.11300
C653        C  0.10001729  0.98505233  0.31121561    -0.14800
C654        C  0.07221996  0.98768366  0.28942801     0.07300
C655        C  0.07200843  0.00480050  0.25362809    -0.14800
C656        C  0.09947914  0.01599134  0.23749971    -0.14800
C657        C  0.12771377  0.01087847  0.25720792     0.07300
C658        C  0.12777864  0.99676522  0.29512002    -0.14800
H659        H  0.10064231  0.97226813  0.33901784     0.11300
H660        H  0.05067179  0.00807994  0.23676141     0.11300
H661        H  0.09885918  0.02726945  0.20861040     0.11300
H662        H  0.14951463  0.99269264  0.31079072     0.11300
C663        C  0.34865400  0.48422256  0.26262533    -0.14800
C664        C  0.37661990  0.49099828  0.24341294     0.07300
C665        C  0.37634633  0.00662190  0.20776336    -0.14800
C666        C  0.34838950  0.01858013  0.19211926    -0.14800
C667        C  0.32022754  0.51354058  0.21242082     0.07300
C668        C  0.32082123  0.49529207  0.24725004    -0.14800
H669        H  0.34849405  0.47175497  0.29070707     0.11300
H670        H  0.39800360  0.01134468  0.19242459     0.11300
H671        H  0.34877897  0.03206646  0.16486256     0.11300
H672        H  0.29978967  0.49101726  0.26407505     0.11300
C673        C  0.34670171  0.88063504  0.38442340    -0.14800
C674        C  0.35437437  0.84900042  0.37969950     0.07300
C675        C  0.38614194  0.84115595  0.37632077    -0.14800
C676        C  0.40930450  0.86414276  0.37558899    -0.14800
C677        C  0.40162361  0.89587959  0.37828236     0.07300
C678        C  0.37000996  0.90375672  0.38373867    -0.14800
H679        H  0.32258131  0.88767430  0.38698888     0.11300
H680        H  0.39319631  0.81715904  0.37257297     0.11300
H681        H  0.43323268  0.85697623  0.37129845     0.11300
H682        H  0.36307974  0.92790920  0.38588888     0.11300
C683        C  0.23773954  0.87455499  0.21588845    -0.14800
C684        C  0.25718832  0.87272946  0.24971346     0.07300
C685        C  0.26784063  0.90012703  0.26744054    -0.14800
C686        C  0.25828853  0.92883730  0.25301958    -0.14800
C687        C  0.23743943  0.93118774  0.22057898     0.07300
C688        C  0.22780310  0.90369650  0.20140968    -0.14800
H689        H  0.22891933  0.85351700  0.20210313     0.11300
H690        H  0.28281706  0.89930211  0.29349186     0.11300
H691        H  0.26654604  0.94927997  0.26860313     0.11300
H692        H  0.21184021  0.90466231  0.17639406     0.11300
C693        C  0.24982004  0.66167192  0.30875487    -0.14800
C694        C  0.27753859  0.67523807  0.29497455     0.07300
C695        C  0.29405271  0.66115686  0.26413098    -0.14800
C696        C  0.28216687  0.63501850  0.24537231    -0.14800
C697        C  0.25337194  0.62238965  0.25695970     0.07300
C698        C  0.23781424  0.63508250  0.28990737    -0.14800
H699        H  0.23647913  0.67281672  0.33203792     0.11300
H700        H  0.31526793  0.67158028  0.25289140     0.11300
H701        H  0.29523890  0.62522960  0.22086172     0.11300
H702        H  0.21583367  0.62543493  0.29973061     0.11300
C703        C  0.40712710  0.71182124  0.22042204    -0.14800
C704        C  0.42823746  0.73411931  0.20646776     0.07300
C705        C  0.42042331  0.76588072  0.20891755    -0.14800
C706        C  0.39246133  0.77522871  0.22668606    -0.14800
C707        C  0.37261736  0.75292806  0.24348583     0.07300
C708        C  0.37972990  0.72118181  0.23927374    -0.14800
H709        H  0.41305558  0.68732671  0.21980281     0.11300
H710        H  0.43679665  0.78346589  0.19910035     0.11300
H711        H  0.38741862  0.79979811  0.22975528     0.11300
H712        H  0.36460906  0.70363658  0.25200857     0.11300
C713        C  0.17678199  0.73625870  0.26569469    -0.14800
C714        C  0.17978871  0.76143202  0.29237607     0.07300
C715        C  0.15256916  0.77594258  0.30623362    -0.14800
C716        C  0.12323623  0.76690755  0.29118610    -0.14800
C717        C  0.12095113  0.74349279  0.26200771     0.07300
C718        C  0.14785028  0.72773258  0.25034332    -0.14800
H719        H  0.19711121  0.72400865  0.25491914     0.11300
H720        H  0.15407997  0.79532552  0.32672320     0.11300
H721        H  0.10266626  0.77960448  0.30020572     0.11300
H722        H  0.14661682  0.70962722  0.22794467     0.11300
C723        C  0.27221613  0.72800351  0.52595088    -0.14800
C724        C  0.24380501  0.73785839  0.54245180     0.07300
C725        C  0.22409428  0.75669740  0.51903931    -0.14800
C726        C  0.23257996  0.76555744  0.48037083    -0.14800
C727        C  0.26106496  0.75589193  0.46392621     0.07300
C728        C  0.28072879  0.73690218  0.48723757    -0.14800
H729        H  0.28800110  0.71350374  0.54302593     0.11300
H730        H  0.20198163  0.76466454  0.53058815     0.11300
H731        H  0.21678226  0.78010624  0.46338418     0.11300
H732        H  0.30285615  0.72900927  0.47565567     0.11300
C733        C  0.12143151  0.78079800  0.75188764    -0.14800
C734        C  0.13443703  0.75208519  0.76319111     0.07300
C735        C  0.12130740  0.73572215  0.79532988    -0.14800
C736        C  0.09382872  0.74669089  0.81321829    -0.14800
C737        C  0.07984705  0.77432691  0.79954957     0.07300
C738        C  0.09448995  0.79173292  0.76980918    -0.14800
H739        H  0.13146991  0.79438534  0.72793243     0.11300
H740        H  0.13109558  0.71371276  0.80484947     0.11300
H741        H  0.08232907  0.73254447  0.83549241     0.11300
H742        H  0.08377823  0.81280238  0.75843745     0.11300
C743        C  0.36021394  0.77525657  0.73300213    -0.14800
C744        C  0.38421362  0.75366767  0.73832207     0.07300
C745        C  0.37984953  0.72269459  0.72613480    -0.14800
C746        C  0.35109875  0.71291336  0.71086128    -0.14800
C747        C  0.32625624  0.73392756  0.70854010     0.07300
C748        C  0.33131022  0.76538510  0.71841216    -0.14800
H749        H  0.36308856  0.79908979  0.74283196     0.11300
H750        H  0.39815279  0.70569505  0.73066320     0.11300
H751        H  0.34755113  0.68853507  0.70405102     0.11300
H752        H  0.31229420  0.78192340  0.71703963     0.11300
C753        C  0.26503753  0.62532831  0.79527916    -0.14800
C754        C  0.24498735  0.62689601  0.76203879     0.07300
C755        C  0.23336295  0.59933442  0.74558686    -0.14800
C756        C  0.24321504  0.57068693  0.76003179    -0.14800
C757        C  0.26526865  0.56874435  0.79108619     0.07300
C758        C  0.27518797  0.59630658  0.80977337    -0.14800
H759        H  0.27450295  0.64642987  0.80816351     0.11300
H760        H  0.21775943  0.59997009  0.72012668     0.11300
H761        H  0.23453178  0.54995339  0.74546942     0.11300
H762        H  0.29201591  0.59549736  0.83386591     0.11300
C763        C  0.21183741  0.84031271  0.73427037    -0.14800
C764        C  0.23020575  0.82409665  0.70701763     0.07300
C765        C  0.25982077  0.83565772  0.69703218    -0.14000
C766        C  0.27141949  0.86254115  0.71575115    -0.14800
C767        C  0.25367702  0.87743193  0.74518097     0.07300
C768        C  0.22342100  0.86665398  0.75315173    -0.14800
H769        H  0.18924867  0.83131772  0.74297224     0.11300
H770        H  0.27467900  0.82278078  0.67695873     0.11300
H771        H  0.29470841  0.87062090  0.70892070     0.11300
H772        H  0.20893607  0.87813714  0.77500089     0.11300
C773        C  0.02381614  0.47999346  0.52202555    -0.14800
C774        C  0.01110386  0.50661483  0.54011732     0.07300
C775        C  0.48952509  0.02622630  0.51767895    -0.14800
C776        C  0.48061752  0.01767008  0.47892199    -0.14800
C777        C  0.49192366  0.99014401  0.46154881     0.07300
C778        C  0.01520453  0.47152657  0.48317675    -0.14800
H779        H  0.04057562  0.46570890  0.53782071     0.11300
H780        H  0.48050975  0.04770504  0.52987729     0.11300
H781        H  0.46498061  0.03275707  0.46248220     0.11300
H782        H  0.02553324  0.45092301  0.47023997     0.11300
C783        C  0.13447439  0.59312516  0.62368442    -0.14800
C784        C  0.10266721  0.60092793  0.62652629     0.07300
C785        C  0.09478797  0.63270021  0.62850881    -0.14800
C786        C  0.11788828  0.65580639  0.62944735    -0.14800
C787        C  0.14972900  0.64800589  0.62841604     0.07300
C788        C  0.15766347  0.61632323  0.62460661    -0.14800
H789        H  0.14157455  0.56898293  0.62233314     0.11300
H790        H  0.07066819  0.63979798  0.63083666     0.11300
H791        H  0.11070263  0.67983422  0.63238581     0.11300
H792        H  0.18187092  0.60929475  0.62385191     0.11300
C793        C  0.15412620  0.51077112  0.73575012    -0.14800
C794        C  0.12639791  0.50536747  0.75631670     0.07300
C795        C  0.12797193  0.98892087  0.79370921    -0.14800
C796        C  0.15688765  0.97831996  0.80823347    -0.14800
C797        C  0.18427245  0.98445737  0.78675117     0.07300
C798        C  0.18239562  0.00312281  0.75231486    -0.14800
H799        H  0.15395917  0.52224953  0.70697808     0.11300
H800        H  0.10684749  0.98241329  0.80918782     0.11300
H801        H  0.15765286  0.96424843  0.83499253     0.11300
H802        H  0.20297117  0.00890315  0.73528469     0.11300
C803        C  0.41393386  0.54244769  0.73997016    -0.14800
C804        C  0.42755949  0.52571019  0.70884927     0.07300
C805        C  0.41416094  0.99991645  0.69416015    -0.14800
C806        C  0.38775069  0.98760632  0.71315336    -0.14800
C807        C  0.37692882  0.00103448  0.74871299     0.07300
C808        C  0.38799200  0.53073752  0.75954454    -0.14800
H809        H  0.42460656  0.56371574  0.75075959     0.11300
H810        H  0.42379500  0.98801545  0.66860986     0.11300
H811        H  0.37666490  0.96700592  0.70109959     0.11300
H812        H  0.37843418  0.54389380  0.78413333     0.11300
C813        C  0.47020436  0.62978797  0.75211348    -0.14800
C814        C  0.00419600  0.61770600  0.76078642     0.07300
C815        C  0.02640588  0.63744885  0.77804162    -0.14800
C816        C  0.50833430  0.66230528  0.80530802    -0.14800
C817        C  0.47800874  0.67298446  0.79719600     0.07300
C818        C  0.45878040  0.65595028  0.77150607    -0.14800
H819        H  0.45509678  0.61771288  0.73130199     0.11300
H820        H  0.05102643  0.63242677  0.77530465     0.11300
H821        H  0.52380220  0.67578258  0.82415757     0.11300
H822        H  0.43559210  0.66421475  0.76425056     0.11300
C823        C  0.48135804  0.89680288  0.75369985    -0.14800
C824        C  0.99668979  0.86771728  0.74092889     0.07300
C825        C  0.02317351  0.86992949  0.71649778    -0.14800
C826        C  0.03276124  0.89892016  0.70138035    -0.14800
C827        C  0.01597881  0.92591296  0.71087997     0.07300
C828        C  0.49033832  0.92548192  0.73834419    -0.14800
H829        H  0.46281539  0.89592642  0.77548815     0.11300
H830        H  0.03746887  0.84959538  0.71123851     0.11300
H831        H  0.05424331  0.90050430  0.68470875     0.11300
H832        H  0.47808092  0.94598282  0.74855339     0.11300
Fe833      Fe  0.56543722  0.00654376  0.65133902     1.65800
Fe834      Fe  0.51052252  0.06339880  0.65088306     1.73200
Fe835      Fe  0.52798034  0.02686157  0.73678225     1.54400
O836        O  0.51990306  0.48083361  0.72855745    -0.83100
O837        O  0.50412823  0.09139465  0.70059698    -0.81500
O838        O  0.54386948  0.46535545  0.67276799    -0.85700
O839        O  0.59752059  0.00761957  0.69677623    -0.80500
O840        O  0.97907403  0.02898431  0.72928063    -0.82300
O841        O  0.55173966  0.08634530  0.63761072    -0.85000
C842        C  0.59768781  0.01156641  0.73410568     0.95700
C843        C  0.52700088  0.45997720  0.70343348     1.03200
O844        O  0.53498973  0.03202159  0.67951852    -1.14000
O845        O  0.01069072  0.04112291  0.59619021    -0.76400
O846        O  0.53892078  0.00004515  0.60034732    -0.79900
O847        O  0.57363628  0.01919089  0.75326653    -0.80600
C848        C  0.52016253  0.01706475  0.58105850     0.94600
O849        O  0.58653805  0.04759924  0.62960843    -0.78600
O850        O  0.96914962  0.03708052  0.66451483    -0.83800
C851        C  0.51569383  0.09374472  0.73529807     0.97300
C852        C  0.96069577  0.02927131  0.69946364     1.03200
O853        O  0.53393622  0.07338093  0.74931487    -0.79400
C854        C  0.57927698  0.07663972  0.62990941     1.01500
Fe855      Fe  0.69024535  0.24029296  0.65258109     1.65800
Fe856      Fe  0.74638958  0.18480282  0.65306648     1.73200
Fe857      Fe  0.72810750  0.22388656  0.73854793     1.54400
O858        O  0.72465986  0.27124850  0.72942928    -0.83100
O859        O  0.74574083  0.15384168  0.69944120    -0.81500
O860        O  0.71405170  0.28104450  0.66514873    -0.85700
O861        O  0.66291101  0.24800286  0.70227469    -0.80500
O862        O  0.77479859  0.22855171  0.72954710    -0.82300
O863        O  0.70478134  0.16386618  0.63268302    -0.85000
C864        C  0.66100361  0.23860177  0.73798855     0.95700
C865        C  0.72295368  0.28955267  0.69969160     1.03200
O866        O  0.72169259  0.21598449  0.68136934    -1.14000
O867        O  0.75232722  0.20998626  0.60108266    -0.76400
O868        O  0.71069578  0.23969455  0.59688426    -0.79900
O869        O  0.68147541  0.22100810  0.75319266    -0.80600
C870        C  0.73528027  0.22873279  0.58187823     0.94600
O871        O  0.66655226  0.19926898  0.64026983    -0.78600
O872        O  0.78858255  0.20438775  0.67326686    -0.83800
C873        C  0.74114230  0.15371483  0.73662740     0.97300
C874        C  0.79492921  0.22128052  0.70361193     1.03200
O875        O  0.73349657  0.17789384  0.75567829    -0.79400
C876        C  0.67584224  0.17159434  0.63262398     1.01500
Fe877      Fe  0.75986335  0.31132293  0.35053320     1.65800
Fe878      Fe  0.81590620  0.25589268  0.35080472     1.73200
Fe879      Fe  0.77807072  0.27240589  0.26491089     1.54400
O880        O  0.73153087  0.26683066  0.27431060    -0.83100
O881        O  0.84306623  0.24886607  0.30108931    -0.81500
O882        O  0.71766763  0.29149508  0.33025601    -0.85700
O883        O  0.76024864  0.34252972  0.30436924    -0.80500
O884        O  0.78249766  0.22505676  0.27353054    -0.82300
O885        O  0.83970905  0.29678732  0.36316549    -0.85000
C886        C  0.76421196  0.34255877  0.26706925     0.95700
C887        C  0.71137754  0.27423599  0.30016854     1.03200
O888        O  0.78449303  0.28025711  0.32210327    -1.14000
O889        O  0.79545394  0.25590904  0.40643656    -0.76400
O890        O  0.75399034  0.28582401  0.40236237    -0.79900
O891        O  0.77159034  0.31834404  0.24790845    -0.80600
C892        C  0.77076115  0.26667815  0.42132684     0.94600
O893        O  0.80171517  0.33242476  0.37056510    -0.78600
O894        O  0.79210395  0.21521682  0.33799168    -0.83800
C895        C  0.84515457  0.25855923  0.26553740     0.97300
C896        C  0.78373376  0.20671554  0.30325789     1.03200
O897        O  0.82468406  0.27615558  0.25029250    -0.79400
C898        C  0.83067010  0.32461000  0.37024475     1.01500
Fe899      Fe  0.99592564  0.43596078  0.34880108     1.65800
Fe900      Fe  0.93924599  0.49079404  0.34992917     1.73200
Fe901      Fe  0.97679328  0.47232277  0.26404777     1.54400
O902        O  0.52262999  0.46541958  0.26786271    -0.83100
O903        O  0.90710753  0.48950891  0.30483492    -0.81500
O904        O  0.53446659  0.46294162  0.33231420    -0.85700
O905        O  0.50203347  0.40891463  0.29749405    -0.80500
O906        O  0.98877814  0.01876817  0.27595088    -0.82300
O907        O  0.91951463  0.44889025  0.37074730    -0.85000
C908        C  0.98952598  0.40575526  0.26470770     0.95700
C909        C  0.54098100  0.47094331  0.29671040     1.03200
O910        O  0.97004688  0.46650697  0.32113674    -1.14000
O911        O  0.96736410  0.99678514  0.40016058    -0.76400
O912        O  0.99554950  0.45599902  0.40485646    -0.79900
O913        O  0.97046402  0.42578825  0.25154359    -0.80600
C914        C  0.98438044  0.48043159  0.42001877     0.94600
O915        O  0.95535974  0.41111555  0.36173389    -0.78600
O916        O  0.95753855  0.03145382  0.32706292    -0.83800
C917        C  0.90701347  0.48675706  0.26736934     0.97300
C918        C  0.97738284  0.03848293  0.30001409     1.03200
O919        O  0.93126454  0.48052426  0.24788135    -0.79400
C920        C  0.92750429  0.42004147  0.36973375     1.01500
Fe921      Fe  0.93894284  0.25677215  0.85013406     1.65800
Fe922      Fe  0.49576205  0.31395460  0.85178058     1.73200
Fe923      Fe  0.98446523  0.26818182  0.76746043     1.54400
O924        O  0.98493839  0.22193211  0.78074545    -0.83100
O925        O  0.99805437  0.34108264  0.80091523    -0.81500
O926        O  0.95729758  0.21316454  0.83593227    -0.85700
O927        O  0.91082339  0.25586734  0.80041967    -0.80500
O928        O  0.53072539  0.27195029  0.77943370    -0.82300
O929        O  0.95343029  0.33571416  0.86433940    -0.85000
C930        C  0.91355093  0.25872066  0.76303172     0.95700
C931        C  0.97434438  0.20398415  0.80730452     1.03200
O932        O  0.97280404  0.27945961  0.82273839    -1.14000
O933        O  0.49848779  0.29068719  0.90572311    -0.76400
O934        O  0.96174347  0.25338575  0.90447325    -0.79900
O935        O  0.93921613  0.26483506  0.74619399    -0.80600
C936        C  0.98319330  0.26830730  0.92212034     0.94600
O937        O  0.91705673  0.29843720  0.86564653    -0.78600
O938        O  0.53933831  0.29521316  0.83794844    -0.83800
C939        C  0.99424371  0.33866082  0.76359291     0.97300
C940        C  0.54865707  0.28051754  0.80731509     1.03200
O941        O  0.98678845  0.31338777  0.74670458    -0.79400
C942        C  0.92516424  0.32696950  0.86832084     1.01500
Fe943      Fe  0.81367576  0.49177331  0.85080054     1.65800
Fe944      Fe  0.75804522  0.43587958  0.85166696     1.73200
Fe945      Fe  0.77870407  0.46828623  0.76499676     1.54400
O946        O  0.78203248  0.01553047  0.77028727    -0.83100
O947        O  0.75161252  0.40687220  0.80333535    -0.81500
O948        O  0.79146054  0.03032656  0.83323142    -0.85700
O949        O  0.84397293  0.49580457  0.80417212    -0.80500
O950        O  0.73117626  0.46383817  0.77051605    -0.82300
O951        O  0.79941052  0.41266823  0.86680874    -0.85000
C952        C  0.84607811  0.48856272  0.76785759     0.95700
C953        C  0.78138130  0.03578321  0.79796901     1.03200
O954        O  0.78392458  0.46543123  0.82275705    -1.14000
O955        O  0.75676653  0.45766095  0.90649094    -0.76400
O956        O  0.79032850  0.49615287  0.90417479    -0.79900
O957        O  0.82490820  0.47367369  0.75000541    -0.80600
C958        C  0.76976640  0.48086120  0.92243001     0.94600
O959        O  0.83619000  0.45060807  0.86914858    -0.78600
O960        O  0.71824486  0.46091349  0.83466341    -0.83800
C961        C  0.76385592  0.40242419  0.76956893     0.97300
C962        C  0.71207132  0.46864706  0.79867086     1.03200
O963        O  0.78337510  0.42132682  0.75522850    -0.79400
C964        C  0.82785099  0.42179164  0.87122335     1.01500
Fe965      Fe  0.50965500  0.18358883  0.15217999     1.65800
Fe966      Fe  0.56573880  0.24002989  0.15399677     1.73200
Fe967      Fe  0.52160137  0.22583934  0.23731362     1.54400
O968        O  0.97531986  0.21671023  0.22749607    -0.83100
O969        O  0.59483297  0.24016472  0.20282947    -0.81500
O970        O  0.96732008  0.20749085  0.16292208    -0.85700
O971        O  0.50730470  0.15498231  0.20134035    -0.80500
O972        O  0.51799419  0.27210833  0.22460142    -0.82300
O973        O  0.58775576  0.19896759  0.13639071    -0.85000
C974        C  0.51343232  0.15576052  0.23831361     0.95700
C975        C  0.95766196  0.21550584  0.19714658     1.03200
O976        O  0.53249176  0.21643451  0.18121478    -1.14000
O977        O  0.54246271  0.24442213  0.10014309    -0.76400
O978        O  0.50756324  0.20658206  0.09802440    -0.79900
O979        O  0.52257494  0.18012304  0.25607188    -0.80600
C980        C  0.52108755  0.22965486  0.08218642     0.94600
O981        O  0.55141301  0.16156662  0.13739361    -0.78600
O982        O  0.54648594  0.28271557  0.17047209    -0.83800
C983        C  0.59247560  0.23746832  0.24024496     0.97300
C984        C  0.52825094  0.29074691  0.19852089     1.03200
O985        O  0.56695703  0.23145453  0.25739802    -0.79400
C986        C  0.57962010  0.17047273  0.13305246     1.01500
Fe987      Fe  0.74533582  0.06086168  0.15240369     1.65800
Fe988      Fe  0.68858186  0.00571017  0.15353720     1.73200
Fe989      Fe  0.72530291  0.02760348  0.23930961     1.54400
O990        O  0.77284383  0.03007936  0.23278050    -0.83100
O991        O  0.65678747  0.00686009  0.19911633    -0.81500
O992        O  0.78527913  0.03608740  0.16863429    -0.85700
O993        O  0.75242886  0.08966501  0.20045103    -0.80500
O994        O  0.73243877  0.48361040  0.23345951    -0.82300
O995        O  0.66826573  0.04702168  0.13184194    -0.85000
C996        C  0.74134998  0.09373457  0.23489633     0.95700
C997        C  0.79195177  0.02749386  0.20412224     1.03200
O998        O  0.71937483  0.03123454  0.18155894    -1.14000
O999        O  0.71517306  0.50109976  0.10271256    -0.76400
O1000       O  0.74557340  0.03879638  0.09804529    -0.79900
O1001       O  0.72244271  0.07463725  0.25013434    -0.80600
C1002       C  0.73366738  0.01463596  0.08310013     0.94600
O1003       O  0.70465124  0.08486896  0.13733910    -0.78600
O1004       O  0.70954276  0.46711252  0.17710289    -0.83800
C1005       C  0.65571760  0.01387146  0.23568293     0.97300
C1006       C  0.72600321  0.46229376  0.20854944     1.03200
O1007       O  0.67916571  0.02370536  0.25462306    -0.79400
C1008       C  0.67654858  0.07581714  0.13074578     1.01500
C1009       C  0.63607121  0.15479181  0.12486714    -0.14800
C1010       C  0.60431619  0.14645592  0.12592134     0.07300
C1011       C  0.59672409  0.11459322  0.12389243    -0.14800
C1012       C  0.62012591  0.09176509  0.12301235    -0.14800
C1013       C  0.65189703  0.10004397  0.12423944     0.07300
C1014       C  0.65947876  0.13195925  0.12408475    -0.14800
H1015       H  0.64296658  0.17900967  0.12633393     0.11300
H1016       H  0.57262345  0.10714427  0.12459213     0.11300
H1017       H  0.61322118  0.06752324  0.12322949     0.11300
H1018       H  0.68358762  0.13938035  0.12504221     0.11300
C1019       C  0.76697738  0.02133817  0.02216042    -0.14800
C1020       C  0.74319181  0.00514322  0.04222872     0.07300
C1021       C  0.73105387  0.48108014  0.02461324    -0.14800
C1022       C  0.73941119  0.47240928  0.98581548    -0.14800
C1023       C  0.76078418  0.49024197  0.96368991     0.07300
C1024       C  0.77565508  0.01302253  0.98344724    -0.14800
H1025       H  0.77897587  0.04054775  0.03637635     0.11300
H1026       H  0.71446758  0.46678982  0.04058213     0.11300
H1027       H  0.72909154  0.45163460  0.97316066     0.11300
H1028       H  0.79409082  0.02601498  0.96905274     0.11300
C1029       C  0.51842900  0.27328760  0.98320392    -0.14800
C1030       C  0.99266435  0.25873807  0.96324977     0.07300
C1031       C  0.97926102  0.23249037  0.98160733    -0.14800
C1032       C  0.98835011  0.22337070  0.02008235    -0.14800
C1033       C  0.51165159  0.23959439  0.04124488     0.07300
C1034       C  0.52719705  0.26409199  0.02175319    -0.14800
H1035       H  0.53097487  0.29222131  0.96921039     0.11300
H1036       H  0.96176448  0.21884533  0.96618270     0.11300
H1037       H  0.97751947  0.20301267  0.03312163     0.11300
H1038       H  0.54625351  0.27618731  0.03625235     0.11300
C1039       C  0.86860170  0.34280720  0.87412269    -0.14800
C1040       C  0.90037223  0.35110743  0.87445656     0.07300
C1041       C  0.90791351  0.38295331  0.87741649    -0.14800
C1042       C  0.88445560  0.40578158  0.87842511    -0.14800
C1043       C  0.85268483  0.39751358  0.87644700     0.07300
C1044       C  0.84517696  0.36560185  0.87507185    -0.14800
H1045       H  0.86172005  0.31863345  0.87169844     0.11300
H1046       H  0.93202909  0.39037993  0.87770581     0.11300
H1047       H  0.89131607  0.43002456  0.87931710     0.11300
H1048       H  0.82110431  0.35815580  0.87325430     0.11300
C1049       C  0.52196716  0.09955200  0.24568887    -0.14800
C1050       C  0.50882314  0.12677842  0.26066085     0.07300
C1051       C  0.97404851  0.12296536  0.27161863    -0.14800
C1052       C  0.96509084  0.09430413  0.28779684    -0.14800
C1053       C  0.98735709  0.07100773  0.29419972     0.07300
C1054       C  0.51204502  0.07075780  0.25946560    -0.14800
H1055       H  0.53881774  0.10054489  0.22175439     0.11300
H1056       H  0.95627446  0.13993137  0.26427383     0.11300
H1057       H  0.94057626  0.08948080  0.29224728     0.11300
H1058       H  0.52211009  0.05027935  0.24601113     0.11300
C1059       C  0.54088302  0.34391901  0.22004488    -0.14800
C1060       C  0.51917435  0.32329860  0.20359509     0.07300
C1061       C  0.48742592  0.33141077  0.20287077    -0.14800
C1062       C  0.47736641  0.35928192  0.22016036    -0.14800
C1063       C  0.49891630  0.37858820  0.23958674     0.07300
C1064       C  0.53079102  0.37122360  0.23824823    -0.14800
H1065       H  0.56528725  0.33763531  0.22186163     0.11300
H1066       H  0.47028314  0.31526239  0.19116808     0.11300
H1067       H  0.45272062  0.36459868  0.22088674     0.11300
H1068       H  0.54781179  0.38605854  0.25278021     0.11300
C1069       C  0.59756328  0.48432344  0.30941213    -0.14800
C1070       C  0.57038511  0.48662127  0.28621383     0.07300
C1071       C  0.57141038  0.50288630  0.24982200    -0.14800
C1072       C  0.59927330  0.51420777  0.23511563    -0.14800
C1073       C  0.62690425  0.50962623  0.25640165     0.07300
C1074       C  0.62585066  0.49582959  0.29446633    -0.14800
H1075       H  0.59728324  0.47219384  0.33769115     0.11300
H1076       H  0.55075214  0.50565955  0.23151432     0.11300
H1077       H  0.59946300  0.52516251  0.20601870     0.11300
H1078       H  0.64709960  0.49206951  0.31132243     0.11300
C1079       C  0.85189390  0.98427454  0.26414013    -0.14800
C1080       C  0.87982313  0.99235506  0.24551332     0.07300
C1081       C  0.87655097  0.50680145  0.20855762    -0.14800
C1082       C  0.84828973  0.51824972  0.19315923    -0.14800
C1083       C  0.82239048  0.01351585  0.21471944     0.07300
C1084       C  0.82369511  0.99469713  0.24902168    -0.14800
H1085       H  0.85189934  0.97094450  0.29156669     0.11300
H1086       H  0.89787595  0.51088426  0.19221263     0.11300
H1087       H  0.84814506  0.53068805  0.16509274     0.11300
H1088       H  0.80281398  0.98899388  0.26544573     0.11300
C1089       C  0.84766929  0.38084970  0.37880855    -0.14800
C1090       C  0.85529024  0.34904960  0.37614273     0.07300
C1091       C  0.88711045  0.34096782  0.37504437    -0.14800
C1092       C  0.91045266  0.36386910  0.37487176    -0.14800
C1093       C  0.90285378  0.39570887  0.37589541     0.07300
C1094       C  0.87109303  0.40382434  0.37872428    -0.14800
H1095       H  0.82352725  0.38810641  0.37943426     0.11300
H1096       H  0.89409429  0.31682919  0.37288256     0.11300
H1097       H  0.93450746  0.35654755  0.37256471     0.11300
H1098       H  0.86418134  0.42804142  0.37929445     0.11300
C1099       C  0.74026038  0.37450301  0.21191623    -0.14800
C1100       C  0.75918643  0.37233745  0.24618286     0.07300
C1101       C  0.76941970  0.39961063  0.26469316    -0.14800
C1102       C  0.75961305  0.42845562  0.25090353    -0.14800
C1103       C  0.73882495  0.43103195  0.21839904     0.07300
C1104       C  0.73002592  0.40375603  0.19811487    -0.14800
H1105       H  0.73185102  0.35360022  0.19741685     0.11300
H1106       H  0.78407467  0.39854773  0.29103537     0.11300
H1107       H  0.76750883  0.44877537  0.26706986     0.11300
H1108       H  0.71430589  0.40492188  0.17286124     0.11300
C1109       C  0.74686597  0.16204389  0.30612321    -0.14800
C1110       C  0.77589742  0.17433795  0.29501294     0.07300
C1111       C  0.79413756  0.15867862  0.26714058    -0.14800
C1112       C  0.78290899  0.13200994  0.24877959    -0.14800
C1113       C  0.75309813  0.12049548  0.25780524     0.07300
C1114       C  0.73557284  0.13492909  0.28779508    -0.14800
H1115       H  0.73217120  0.17448968  0.32684769     0.11300
H1116       H  0.81633181  0.16822160  0.25778317     0.11300
H1117       H  0.79727924  0.12089651  0.22648743     0.11300
H1118       H  0.71265747  0.12627189  0.29543387     0.11300
C1119       C  0.90902023  0.20502811  0.23228238    -0.14800
C1120       C  0.92487174  0.22303583  0.20418845     0.07300
C1121       C  0.91257071  0.25203103  0.19268756    -0.14800
C1122       C  0.88555924  0.26358023  0.21107349    -0.14800
C1123       C  0.87122498  0.24638788  0.24158831     0.07300
C1124       C  0.88253197  0.21652754  0.25073568    -0.14800
H1125       H  0.91844502  0.18289698  0.24202360     0.11300
H1126       H  0.92507266  0.26662473  0.17180560     0.11300
H1127       H  0.87708740  0.28652506  0.20328262     0.11300
H1128       H  0.87149093  0.20238907  0.27342372     0.11300
C1129       C  0.67660155  0.23469936  0.26930565    -0.14800
C1130       C  0.67965545  0.26152056  0.29316035     0.07300
C1131       C  0.65255440  0.27711600  0.30526581    -0.14800
C1132       C  0.62326209  0.26755382  0.29075838    -0.14800
C1133       C  0.62093404  0.24245023  0.26401032     0.07300
C1134       C  0.64766741  0.22554482  0.25451754    -0.14800
H1135       H  0.69694338  0.22168580  0.26011573     0.11300
H1136       H  0.65418362  0.29777210  0.32359306     0.11300
H1137       H  0.60281108  0.28112268  0.29799324     0.11300
H1138       H  0.64635533  0.20616230  0.23395418     0.11300
C1139       C  0.77126512  0.22625695  0.52264685    -0.14800
C1140       C  0.74422594  0.23815791  0.54061666     0.07300
C1141       C  0.72573785  0.25916923  0.51864161    -0.14800
C1142       C  0.73419650  0.26825518  0.48001131    -0.14800
C1143       C  0.76140145  0.25660673  0.46219284     0.07300
C1144       C  0.77972132  0.23533921  0.48400800    -0.14800
H1145       H  0.78601904  0.20994277  0.53849033     0.11300
H1146       H  0.70468617  0.26874986  0.53134611     0.11300
H1147       H  0.71943394  0.28455861  0.46416541     0.11300
H1148       H  0.80076458  0.22574779  0.47129228     0.11300
C1149       C  0.62398219  0.28089474  0.75439665    -0.14800
C1150       C  0.63505639  0.25072049  0.76230719     0.07300
C1151       C  0.62064453  0.23297338  0.79221003    -0.14800
C1152       C  0.59373316  0.24422400  0.81105183    -0.14800
C1153       C  0.58171793  0.27367836  0.80110087     0.07300
C1154       C  0.59768698  0.29226621  0.77368667    -0.14800
H1155       H  0.63502994  0.29534793  0.73205911     0.11300
H1156       H  0.62890096  0.20976150  0.79903509     0.11300
H1157       H  0.58106505  0.22911044  0.83114469     0.11300
H1158       H  0.58828820  0.31462320  0.76473234     0.11300
C1159       C  0.85849210  0.27047577  0.74846539    -0.14800
C1160       C  0.88528990  0.25367905  0.73900995     0.07300
C1161       C  0.88303159  0.22825536  0.71274825    -0.14800
C1162       C  0.85374962  0.21838441  0.69856824    -0.14800
C1163       C  0.82661883  0.23396405  0.71060583     0.07300
C1164       C  0.82957616  0.26097389  0.73408589    -0.14800
H1165       H  0.85974408  0.29000257  0.76880870     0.11300
H1166       H  0.90353006  0.21468600  0.70571137     0.11300
H1167       H  0.85216207  0.19755865  0.68055515     0.11300
H1168       H  0.80918608  0.27393235  0.74323581     0.11300
C1169       C  0.76186895  0.12237052  0.79442395    -0.14800
C1170       C  0.74611004  0.12395402  0.75758629     0.07300
C1171       C  0.73934584  0.09640106  0.73719253    -0.14800
C1172       C  0.74989429  0.06804190  0.75162205    -0.14800
C1173       C  0.76769401  0.06627892  0.78688678     0.07300
C1174       C  0.77264103  0.09358885  0.80906600    -0.14800
H1175       H  0.76751846  0.14347168  0.81052725     0.11300
H1176       H  0.72701306  0.09694302  0.70895775     0.11300
H1177       H  0.74494823  0.04749300  0.73407609     0.11300
H1178       H  0.78596805  0.09290423  0.83650211     0.11300
C1179       C  0.71148313  0.33808717  0.73413351    -0.14800
C1180       C  0.73069980  0.32197447  0.70779066     0.07300
C1181       C  0.76036768  0.33377260  0.69871677    -0.14000
C1182       C  0.77121480  0.36086014  0.71753059    -0.14800
C1183       C  0.75264014  0.37571470  0.74611301     0.07300
C1184       C  0.72230029  0.36470409  0.75307526    -0.14800
H1185       H  0.68879781  0.32888699  0.74201630     0.11300
H1186       H  0.77579119  0.32096485  0.67927097     0.11300
H1187       H  0.79456193  0.36914049  0.71146385     0.11300
H1188       H  0.70717607  0.37615591  0.77422981     0.11300
C1189       C  0.52090313  0.97974577  0.52305118    -0.14800
C1190       C  0.50996014  0.00748806  0.54023319     0.07300
C1191       C  0.98937089  0.52438134  0.51835706    -0.14800
C1192       C  0.98077059  0.51592361  0.47952904    -0.14800
C1193       C  0.99364971  0.48944462  0.46131291     0.07300
C1194       C  0.51203189  0.97121541  0.48430705    -0.14800
H1195       H  0.53653833  0.96463474  0.53945881     0.11300
H1196       H  0.97901041  0.54497405  0.53127911     0.11300
H1197       H  0.96399262  0.53020763  0.46376676     0.11300
H1198       H  0.52105339  0.94972684  0.47214222     0.11300
C1199       C  0.63599764  0.09229468  0.62330188    -0.14800
C1200       C  0.60422171  0.10052548  0.62353881     0.07300
C1201       C  0.59660147  0.13237950  0.62244464    -0.14800
C1202       C  0.61987294  0.15526718  0.62333327    -0.14800
C1203       C  0.65160564  0.14712793  0.62532487     0.07300
C1204       C  0.65937416  0.11528565  0.62417812    -0.14800
H1205       H  0.64285254  0.06806623  0.62434781     0.11300
H1206       H  0.57249149  0.13977088  0.62251084     0.11300
H1207       H  0.61284489  0.17945219  0.62396088     0.11300
H1208       H  0.68350245  0.10804291  0.62576674     0.11300
C1209       C  0.65506258  0.01306562  0.73631363    -0.14800
C1210       C  0.62715142  0.00576645  0.75541325     0.07300
C1211       C  0.62683950  0.49424029  0.79407540    -0.14800
C1212       C  0.65507968  0.48272904  0.80982662    -0.14800
C1213       C  0.68229266  0.48360295  0.78668764     0.07300
C1214       C  0.68116487  0.49836871  0.74920656    -0.14800
H1215       H  0.65503191  0.02615518  0.70869209     0.11300
H1216       H  0.60566385  0.49169475  0.81121337     0.11300
H1217       H  0.65530664  0.47191834  0.83897111     0.11300
H1218       H  0.70171379  0.50025860  0.73074855     0.11300
C1219       C  0.91288439  0.03908430  0.73634448    -0.14800
C1220       C  0.92840100  0.02106187  0.70806417     0.07300
C1221       C  0.91242625  0.49654844  0.69348860    -0.14800
C1222       C  0.88512128  0.48537973  0.71164004    -0.14800
C1223       C  0.87348350  0.50011656  0.74590271     0.07300
C1224       C  0.88680175  0.02743642  0.75560744    -0.14800
H1225       H  0.92218801  0.06145182  0.74538099     0.11300
H1226       H  0.92257500  0.48371596  0.66902765     0.11300
H1227       H  0.87402019  0.46458838  0.70015759     0.11300
H1228       H  0.87580341  0.04169037  0.77811838     0.11300
C1229       C  0.97063842  0.12625900  0.76026771    -0.14800
C1230       C  0.50518650  0.11972902  0.76039966     0.07300
C1231       C  0.52607523  0.13729597  0.78341790    -0.14800
C1232       C  0.01260662  0.16090200  0.80595390    -0.14800
C1233       C  0.98160842  0.17099744  0.80184941     0.07300
C1234       C  0.96045210  0.15284165  0.78014628    -0.14800
H1235       H  0.95422039  0.11348258  0.74192107     0.11300
H1236       H  0.55059239  0.13139509  0.78421751     0.11300
H1237       H  0.02948860  0.17522565  0.82152587     0.11300
H1238       H  0.93673711  0.16075974  0.77558889     0.11300
C1239       C  0.98113127  0.39300955  0.74710831    -0.14800
C1240       C  0.49684316  0.36996625  0.74238036     0.07300
C1241       C  0.52012858  0.37210082  0.71313089    -0.14800
C1242       C  0.52911021  0.40128741  0.69808160    -0.14800
C1243       C  0.51468780  0.42845639  0.71210765     0.07300
C1244       C  0.98976771  0.42185625  0.73183521    -0.14800
H1245       H  0.96107052  0.39143227  0.76650061     0.11300
H1246       H  0.53278875  0.35151585  0.70407758     0.11300
H1247       H  0.54841737  0.40273731  0.67751190     0.11300
H1248       H  0.97574973  0.44191311  0.73951235     0.11300
Fe1249     Fe  0.56399040  0.50667238  0.65087318     1.65800
Fe1250     Fe  0.50882449  0.56311591  0.64949075     1.73200
Fe1251     Fe  0.52619420  0.52743193  0.73614764     1.54400
O1252       O  0.52097776  0.98044290  0.72871608    -0.83100
O1253       O  0.50207581  0.59130707  0.69866168    -0.81500
O1254       O  0.54568473  0.96499126  0.67349222    -0.85700
O1255       O  0.59552728  0.50758228  0.69688402    -0.80500
O1256       O  0.97915416  0.52854164  0.72884491    -0.82300
O1257       O  0.54994877  0.58616644  0.63622589    -0.85000
C1258       C  0.59600227  0.51239128  0.73404957     0.95700
C1259       C  0.52841662  0.95956533  0.70379237     1.03200
O1260       O  0.53333031  0.53217668  0.67870270    -1.14000
O1261       O  0.00947721  0.54054402  0.59605996    -0.76400
O1262       O  0.53851205  0.50020863  0.59895283    -0.79900
O1263       O  0.57206580  0.52069531  0.75304555    -0.80600
C1264       C  0.51983847  0.51716838  0.57944782     0.94600
O1265       O  0.58520293  0.54765898  0.62946649    -0.78600
O1266       O  0.96842025  0.53759036  0.66457775    -0.83800
C1267       C  0.51289028  0.59411024  0.73367489     0.97300
C1268       C  0.96024987  0.52976588  0.69962212     1.03200
O1269       O  0.53120762  0.57414533  0.74847297    -0.79400
C1270       C  0.57763166  0.57661062  0.62907942     1.01500
Fe1271     Fe  0.68807173  0.74032070  0.65214781     1.65800
Fe1272     Fe  0.74391265  0.68448990  0.65330839     1.73200
Fe1273     Fe  0.72493562  0.72363986  0.73807068     1.54400
O1274       O  0.71994031  0.77076531  0.72965889    -0.83100
O1275       O  0.74152876  0.65299616  0.69910809    -0.81500
O1276       O  0.71241700  0.78080956  0.66490503    -0.85700
O1277       O  0.66042839  0.74803972  0.70187646    -0.80500
O1278       O  0.77143920  0.72966390  0.72964936    -0.82300
O1279       O  0.70247837  0.66431070  0.63128103    -0.85000
C1280       C  0.65802507  0.73660734  0.73657566     0.95700
C1281       C  0.71990217  0.78918806  0.70002773     1.03200
O1282       O  0.71919138  0.71577542  0.68104505    -1.14000
O1283       O  0.75108927  0.71040891  0.60219987    -0.76400
O1284       O  0.70886719  0.73924052  0.59665898    -0.79900
O1285       O  0.67842709  0.71860024  0.75093828    -0.80600
C1286       C  0.73395998  0.72874902  0.58243705     0.94600
O1287       O  0.66414868  0.69948568  0.63973375    -0.78600
O1288       O  0.78604744  0.70330632  0.67532072    -0.83800
C1289       C  0.73778827  0.65364064  0.73643551     0.97300
C1290       C  0.79200536  0.72121961  0.70487906     1.03200
O1291       O  0.73159999  0.67824183  0.75523148    -0.79400
C1292       C  0.67352166  0.67194180  0.63153693     1.01500
Fe1293     Fe  0.76211746  0.81237023  0.35293738     1.65800
Fe1294     Fe  0.81631108  0.75524588  0.35255700     1.73200
Fe1295     Fe  0.77519294  0.77015442  0.26885010     1.54400
O1296       O  0.72906591  0.76402932  0.28155521    -0.83100
O1297       O  0.84172503  0.74681073  0.30111520    -0.81500
O1298       O  0.71853661  0.79652737  0.33197732    -0.85700
O1299       O  0.76563686  0.84319283  0.30661279    -0.80500
O1300       O  0.78100619  0.72320221  0.27848186    -0.82300
O1301       O  0.84170964  0.79547485  0.36231676    -0.85000
C1302       C  0.76439754  0.84126827  0.26900877     0.95700
C1303       C  0.71019072  0.77691264  0.30531348     1.03200
O1304       O  0.78436949  0.77961343  0.32480195    -1.14000
O1305       O  0.79693971  0.75750533  0.40902540    -0.76400
O1306       O  0.75441861  0.78606094  0.40362635    -0.79900
O1307       O  0.76669431  0.81561274  0.25072689    -0.80600
C1308       C  0.77158314  0.76756578  0.42317359     0.94600
O1309       O  0.80467046  0.83105928  0.37430110    -0.78600
O1310       O  0.79140284  0.71483260  0.34294170    -0.83800
C1311       C  0.84252859  0.75724206  0.26571398     0.97300
C1312       C  0.78259517  0.70555843  0.30880036     1.03200
O1313       O  0.82123684  0.77462619  0.25182590    -0.79400
C1314       C  0.83342286  0.82304377  0.37166416     1.01500
Fe1315     Fe  0.99804939  0.93520053  0.34841056     1.65800
Fe1316     Fe  0.94054987  0.98889792  0.34969781     1.73200
Fe1317     Fe  0.97960522  0.97291790  0.26431798     1.54400
O1318       O  0.52219181  0.96377063  0.27035486    -0.83100
O1319       O  0.90836735  0.98535363  0.30462793    -0.81500
O1320       O  0.53392593  0.96223629  0.33483885    -0.85700
O1321       O  0.50171334  0.90796765  0.30039308    -0.80500
O1322       O  0.98427076  0.51881675  0.27349336    -0.82300
O1323       O  0.92215672  0.94686676  0.37203353    -0.85000
C1324       C  0.99102609  0.90647284  0.26302592     0.95700
C1325       C  0.54045786  0.96994950  0.29905064     1.03200
O1326       O  0.97202227  0.96570730  0.32101678    -1.14000
O1327       O  0.96537140  0.49728714  0.40099771    -0.76400
O1328       O  0.99749774  0.95538304  0.40470303    -0.79900
O1329       O  0.97195657  0.92682362  0.25046604    -0.80600
C1330       C  0.98649074  0.98013207  0.41945653     0.94600
O1331       O  0.95807576  0.90962218  0.36133172    -0.78600
O1332       O  0.95820530  0.53289525  0.32849602    -0.83800
C1333       C  0.90931971  0.98648051  0.26698880     0.97300
C1334       C  0.97608980  0.53908766  0.29899642     1.03200
O1335       O  0.93445730  0.98375472  0.24789173    -0.79400
C1336       C  0.93036904  0.91813523  0.37045583     1.01500
Fe1337     Fe  0.93856905  0.75606610  0.84963829     1.65800
Fe1338     Fe  0.49345354  0.81274801  0.84967406     1.73200
Fe1339     Fe  0.98222360  0.77061810  0.76662445     1.54400
O1340       O  0.98887720  0.72492337  0.78003559    -0.83100
O1341       O  0.00011518  0.83957128  0.80059565    -0.81500
O1342       O  0.95593778  0.71323345  0.82954187    -0.85700
O1343       O  0.90834846  0.75885632  0.80230411    -0.80500
O1344       O  0.52442195  0.76145525  0.78059108    -0.82300
O1345       O  0.95353455  0.83533718  0.86312804    -0.85000
C1346       C  0.91108198  0.75829806  0.76481210     0.95700
C1347       C  0.97624671  0.70567265  0.80356861     1.03200
O1348       O  0.97155832  0.77953582  0.82246803    -1.14000
O1349       O  0.50130868  0.78660937  0.90050810    -0.76400
O1350       O  0.96361551  0.74917128  0.90170921    -0.79900
O1351       O  0.93704535  0.76143799  0.74745141    -0.80600
C1352       C  0.98289250  0.76567645  0.92100574     0.94600
O1353       O  0.91820847  0.79731280  0.87047161    -0.78600
O1354       O  0.53627105  0.79630061  0.82806156    -0.83800
C1355       C  0.99091366  0.83951645  0.76455612     0.97300
C1356       C  0.54376931  0.77500285  0.80331908     1.03200
O1357       O  0.97767274  0.81624418  0.74861858    -0.79400
C1358       C  0.92585999  0.82612182  0.87061010     1.01500
Fe1359     Fe  0.81532497  0.99059124  0.85205717     1.65800
Fe1360     Fe  0.75943943  0.93473955  0.85164667     1.73200
Fe1361     Fe  0.78261235  0.96779104  0.76536198     1.54400
O1362       O  0.77292363  0.51530320  0.77078326    -0.83100
O1363       O  0.75464774  0.90480154  0.80475764    -0.81500
O1364       O  0.79045732  0.53154971  0.83051380    -0.85700
O1365       O  0.84511040  0.99627084  0.80473965    -0.80500
O1366       O  0.73503136  0.96937013  0.76978680    -0.82300
O1367       O  0.80064548  0.91221502  0.86957908    -0.85000
C1368       C  0.84895761  0.98563987  0.77002637     0.95700
C1369       C  0.77614986  0.53615360  0.79742775     1.03200
O1370       O  0.78581752  0.96427298  0.82330686    -1.14000
O1371       O  0.75588387  0.95760107  0.90518448    -0.76400
O1372       O  0.79250308  0.99325258  0.90595344    -0.79900
O1373       O  0.82968475  0.96714211  0.75437194    -0.80600
C1374       C  0.77020178  0.97928808  0.92254626     0.94600
O1375       O  0.83812654  0.94951248  0.86915801    -0.78600
O1376       O  0.71954418  0.95826165  0.83195076    -0.83800
C1377       C  0.76441803  0.90116085  0.76967898     0.97300
C1378       C  0.71449275  0.96926684  0.79703008     1.03200
O1379       O  0.78198738  0.92083176  0.75320714    -0.79400
C1380       C  0.82927894  0.92099212  0.87304642     1.01500
Fe1381     Fe  0.51038691  0.68741921  0.15156056     1.65800
Fe1382     Fe  0.56617506  0.74321943  0.15078455     1.73200
Fe1383     Fe  0.52662442  0.72944652  0.23532068     1.54400
O1384       O  0.97419257  0.72722315  0.22504612    -0.83100
O1385       O  0.59288636  0.75108765  0.20156974    -0.81500
O1386       O  0.96526132  0.70347445  0.16690501    -0.85700
O1387       O  0.51340247  0.65656165  0.19790268    -0.80500
O1388       O  0.53376426  0.77637936  0.22574584    -0.82300
O1389       O  0.59011478  0.70214756  0.14052529    -0.85000
C1390       C  0.51314280  0.65857413  0.23548013     0.95700
C1391       C  0.95614411  0.71867198  0.19722428     1.03200
O1392       O  0.53422929  0.71962443  0.17918018    -1.14000
O1393       O  0.54585753  0.74129970  0.09479963    -0.76400
O1394       O  0.50293811  0.71334825  0.10044521    -0.79900
O1395       O  0.51684810  0.68416034  0.25365472    -0.80600
C1396       C  0.52041031  0.73127709  0.08062410     0.94600
O1397       O  0.55190114  0.66730356  0.12986427    -0.78600
O1398       O  0.54230424  0.78431026  0.16090641    -0.83800
C1399       C  0.59434365  0.74058311  0.23690853     0.97300
C1400       C  0.53440920  0.79388566  0.19522815     1.03200
O1401       O  0.57292829  0.72365387  0.25134999    -0.79400
C1402       C  0.58088697  0.67467565  0.13170881     1.01500
Fe1403     Fe  0.74517997  0.56372177  0.15308506     1.65800
Fe1404     Fe  0.68926787  0.50817600  0.15380489     1.73200
Fe1405     Fe  0.72575358  0.53021003  0.23959448     1.54400
O1406       O  0.77296562  0.53612189  0.23324898    -0.83100
O1407       O  0.65727117  0.50948240  0.19880743    -0.81500
O1408       O  0.78474725  0.53832779  0.16877048    -0.85700
O1409       O  0.75194491  0.59197097  0.20217640    -0.80500
O1410       O  0.72931714  0.98059037  0.23359080    -0.82300
O1411       O  0.66851650  0.54945604  0.13163451    -0.85000
C1412       C  0.73964818  0.59579082  0.23608583     0.95700
C1413       C  0.79137380  0.53071453  0.20458711     1.03200
O1414       O  0.71952984  0.53383558  0.18194441    -1.14000
O1415       O  0.71381016  0.99871223  0.10189881    -0.76400
O1416       O  0.74535146  0.54231867  0.09795586    -0.79900
O1417       O  0.71986273  0.57684901  0.24965001    -0.80600
C1418       C  0.73428029  0.51757639  0.08340434     0.94600
O1419       O  0.70449489  0.58753803  0.13868234    -0.78600
O1420       O  0.70853681  0.96438439  0.17590235    -0.83800
C1421       C  0.65651863  0.51486110  0.23579131     0.97300
C1422       C  0.72386454  0.95941005  0.20812822     1.03200
O1423       O  0.68016407  0.52338367  0.25526761    -0.79400
C1424       C  0.67653947  0.57838327  0.13143868     1.01500
C1425       C  0.63700687  0.65772393  0.12849918    -0.14800
C1426       C  0.60518114  0.65008837  0.12538471     0.07300
C1427       C  0.59721075  0.61850160  0.12014535    -0.14800
C1428       C  0.62033699  0.59521333  0.12001619    -0.14800
C1429       C  0.65208123  0.60287773  0.12500813     0.07300
C1430       C  0.65998895  0.63459303  0.12829552    -0.14800
H1431       H  0.64426234  0.68164992  0.13260179     0.11300
H1432       H  0.57300454  0.61160790  0.11772858     0.11300
H1433       H  0.61321146  0.57111397  0.11754775     0.11300
H1434       H  0.68402414  0.64163684  0.13233532     0.11300
C1435       C  0.76521329  0.52568933  0.02036487    -0.14800
C1436       C  0.74375548  0.50789369  0.04244360     0.07300
C1437       C  0.72832017  0.98036727  0.02245996    -0.14800
C1438       C  0.73693442  0.97211025  0.98363634    -0.14800
C1439       C  0.76073108  0.98833426  0.96359781     0.07300
C1440       C  0.77363134  0.51697277  0.98159631    -0.14800
H1441       H  0.77549794  0.54649342  0.03299347     0.11300
H1442       H  0.70985135  0.96744464  0.03688511     0.11300
H1443       H  0.72494785  0.95292642  0.96934862     0.11300
H1444       H  0.79017512  0.53129209  0.96559220     0.11300
C1445       C  0.52042982  0.77100884  0.97907533    -0.14800
C1446       C  0.99232582  0.75597094  0.96205751     0.07300
C1447       C  0.97953959  0.72922591  0.97998373    -0.14800
C1448       C  0.98820380  0.72043407  0.01876448    -0.14800
C1449       C  0.51101847  0.74077826  0.03955993     0.07300
C1450       C  0.52903503  0.76224642  0.01781474    -0.14800
H1451       H  0.53483576  0.78763992  0.96333960     0.11300
H1452       H  0.96272542  0.71506953  0.96408610     0.11300
H1453       H  0.97788596  0.69971240  0.03154346     0.11300
H1454       H  0.54985748  0.77236462  0.03074121     0.11300
C1455       C  0.86940630  0.84181897  0.87800501    -0.14800
C1456       C  0.90117546  0.85008242  0.87769252     0.07300
C1457       C  0.90887065  0.88188707  0.88028148    -0.14800
C1458       C  0.88556059  0.90477222  0.88111216    -0.14800
C1459       C  0.85378471  0.89660711  0.87925006     0.07300
C1460       C  0.84607500  0.86472280  0.87872353    -0.14800
H1461       H  0.86247193  0.81764042  0.87590067     0.11300
H1462       H  0.93300786  0.88924673  0.88022450     0.11300
H1463       H  0.89255549  0.92898512  0.88155563     0.11300
H1464       H  0.82195647  0.85739674  0.87713018     0.11300
C1465       C  0.52179242  0.60230328  0.24453906    -0.14800
C1466       C  0.50743615  0.62952651  0.25779226     0.07300
C1467       C  0.98117698  0.62713090  0.28955282    -0.14800
C1468       C  0.97177839  0.59772391  0.30353750    -0.14800
C1469       C  0.98841883  0.57097535  0.29248072     0.07300
C1470       C  0.51198348  0.57343343  0.25832119    -0.14800
H1471       H  0.53977926  0.60329457  0.22200820     0.11300
H1472       H  0.96681630  0.64724498  0.29574975     0.11300
H1473       H  0.95048071  0.59569372  0.32052345     0.11300
H1474       H  0.52318752  0.55302425  0.24622195     0.11300
C1475       C  0.54486734  0.84308255  0.22890655    -0.14800
C1476       C  0.52627612  0.82641428  0.20213171     0.07300
C1477       C  0.49629877  0.83734773  0.19263247    -0.14800
C1478       C  0.48433587  0.86367002  0.21200071    -0.14800
C1479       C  0.50214731  0.87865897  0.24148460     0.07300
C1480       C  0.53296457  0.86893334  0.24836168    -0.14800
H1481       H  0.56781238  0.83463619  0.23708364     0.11300
H1482       H  0.48136947  0.82418607  0.17274261     0.11300
H1483       H  0.46068320  0.87105150  0.20582703     0.11300
H1484       H  0.54757583  0.88062857  0.27007839     0.11300
C1485       C  0.59699115  0.98489889  0.31109331    -0.14800
C1486       C  0.56973605  0.98589712  0.28786350     0.07300
C1487       C  0.57059705  0.00095588  0.25055469    -0.14800
C1488       C  0.59831812  0.01217413  0.23512013    -0.14800
C1489       C  0.62604550  0.00887494  0.25660024     0.07300
C1490       C  0.62512099  0.99640445  0.29545372    -0.14800
H1491       H  0.59693011  0.97375718  0.34002902     0.11300
H1492       H  0.54992902  0.00279495  0.23207725     0.11300
H1493       H  0.59833368  0.02205744  0.20540168     0.11300
H1494       H  0.64641499  0.99361801  0.31252213     0.11300
C1495       C  0.84962205  0.48751181  0.26689389    -0.14800
C1496       C  0.87743707  0.49248290  0.24634408     0.07300
C1497       C  0.87878039  0.00928345  0.20948738    -0.14800
C1498       C  0.85009261  0.01981530  0.19406206    -0.14800
C1499       C  0.82091423  0.51537771  0.21558651     0.07300
C1500       C  0.82178256  0.49872588  0.25170244    -0.14800
H1501       H  0.84957664  0.47615017  0.29573796     0.11300
H1502       H  0.90014191  0.01587339  0.19461431     0.11300
H1503       H  0.84974217  0.03411147  0.16748330     0.11300
H1504       H  0.80095977  0.49540759  0.26932841     0.11300
C1505       C  0.85134302  0.87842546  0.38492583    -0.14800
C1506       C  0.85850574  0.84697071  0.37763780     0.07300
C1507       C  0.89004850  0.83900132  0.37214495    -0.14800
C1508       C  0.91343512  0.86184175  0.37191483    -0.14800
C1509       C  0.90614510  0.89349355  0.37720956     0.07300
C1510       C  0.87481387  0.90134301  0.38472237    -0.14800
H1511       H  0.82741428  0.88556295  0.38926599     0.11300
H1512       H  0.89666716  0.81512178  0.36642273     0.11300
H1513       H  0.93715405  0.85472728  0.36595893     0.11300
H1514       H  0.86817039  0.92541013  0.38890210     0.11300
C1515       C  0.73851268  0.87170749  0.21364542    -0.14800
C1516       C  0.75874681  0.87042225  0.24681620     0.07300
C1517       C  0.76974943  0.89819447  0.26327940    -0.14800
C1518       C  0.75914922  0.92659842  0.24913843    -0.14800
C1519       C  0.73706911  0.92834755  0.21802918     0.07300
C1520       C  0.72769453  0.90060675  0.19925646    -0.14800
H1521       H  0.72955008  0.85045252  0.20059109     0.11300
H1522       H  0.78551711  0.89793735  0.28858027     0.11300
H1523       H  0.76749353  0.94729716  0.26403938     0.11300
H1524       H  0.71102079  0.90115724  0.17498638     0.11300
C1525       C  0.74487564  0.66194266  0.31025906    -0.14800
C1526       C  0.77487551  0.67309695  0.30173220     0.07300
C1527       C  0.79388030  0.65689679  0.27525286    -0.14800
C1528       C  0.78232759  0.63126655  0.25498089    -0.14800
C1529       C  0.75154184  0.62127365  0.26096489     0.07300
C1530       C  0.73330895  0.63574820  0.29020176    -0.14800
H1531       H  0.72966286  0.67484673  0.32988278     0.11300
H1532       H  0.81682674  0.66561645  0.26783340     0.11300
H1533       H  0.79720970  0.61991215  0.23345115     0.11300
H1534       H  0.70967029  0.62806084  0.29565851     0.11300
C1535       C  0.90403000  0.70517117  0.22216860    -0.14800
C1536       C  0.92319823  0.72656949  0.20255672     0.07300
C1537       C  0.91372416  0.75781836  0.19957922    -0.14800
C1538       C  0.88612131  0.76782176  0.21775650    -0.14800
C1539       C  0.86834839  0.74679763  0.24017314     0.07300
C1540       C  0.87696352  0.71525182  0.24107852    -0.14800
H1541       H  0.91139340  0.68122429  0.22583907     0.11300
H1542       H  0.92877243  0.77483227  0.18557566     0.11300
H1543       H  0.87995721  0.79224148  0.21683114     0.11300
H1544       H  0.86348151  0.69862648  0.25810995     0.11300
C1545       C  0.66638866  0.73874624  0.30271950    -0.14800
C1546       C  0.67709227  0.76956935  0.29866597     0.07300
C1547       C  0.65872882  0.79112887  0.27795268    -0.14800
C1548       C  0.63117558  0.78161584  0.25929658    -0.14800
C1549       C  0.62112335  0.75050186  0.26165043     0.07300
C1550       C  0.63820643  0.72938736  0.28496185    -0.14800
H1551       H  0.68073343  0.72154912  0.31764620     0.11300
H1552       H  0.66698201  0.81470577  0.27343400     0.11300
H1553       H  0.61825315  0.79836291  0.24163161     0.11300
H1554       H  0.63095087  0.70529975  0.28707512     0.11300
C1555       C  0.77202672  0.72857964  0.52534835    -0.14800
C1556       C  0.74344881  0.73831397  0.54147193     0.07300
C1557       C  0.72400263  0.75738211  0.51799773    -0.14800
C1558       C  0.73304114  0.76675840  0.47971831    -0.14800
C1559       C  0.76179673  0.75734836  0.46378064     0.07300
C1560       C  0.78106902  0.73796176  0.48706100    -0.14800
H1561       H  0.78756693  0.71381402  0.54241632     0.11300
H1562       H  0.70172992  0.76518046  0.52923116     0.11300
H1563       H  0.71746243  0.78146967  0.46262968     0.11300
H1564       H  0.80330846  0.73011108  0.47578473     0.11300
C1565       C  0.62441578  0.77828850  0.76360824    -0.14800
C1566       C  0.63157676  0.74645469  0.76109662     0.07300
C1567       C  0.61225403  0.72465538  0.77978926    -0.14800
C1568       C  0.58448770  0.73444233  0.79746250    -0.14800
C1569       C  0.57641092  0.76616323  0.79780861     0.07300
C1570       C  0.59718985  0.78813681  0.78234423    -0.14800
H1571       H  0.63929244  0.79543987  0.74956443     0.11300
H1572       H  0.61747864  0.70004512  0.77818815     0.11300
H1573       H  0.56833963  0.71712184  0.80860522     0.11300
H1574       H  0.59101997  0.81256656  0.78149345     0.11300
C1575       C  0.85572295  0.76958714  0.75101276    -0.14800
C1576       C  0.88251954  0.75282383  0.74139369     0.07300
C1577       C  0.88020828  0.72761835  0.71477853    -0.14800
C1578       C  0.85090188  0.71793500  0.70041326    -0.14800
C1579       C  0.82378542  0.73355189  0.71247411     0.07300
C1580       C  0.82681832  0.76033462  0.73637440    -0.14800
H1581       H  0.85698621  0.78905190  0.77144823     0.11300
H1582       H  0.90069436  0.71412456  0.70745670     0.11300
H1583       H  0.84929524  0.69730298  0.68204765     0.11300
H1584       H  0.80650227  0.77339349  0.74555843     0.11300
C1585       C  0.76135901  0.62308284  0.79226563    -0.14800
C1586       C  0.74208552  0.62444576  0.75831829     0.07300
C1587       C  0.73082535  0.59694258  0.74147341    -0.14800
C1588       C  0.74053605  0.56840202  0.75626981    -0.14800
C1589       C  0.76218809  0.56667845  0.78785329     0.07300
C1590       C  0.77149647  0.59422469  0.80696606    -0.14800
H1591       H  0.77034689  0.64425594  0.80551959     0.11300
H1592       H  0.71569534  0.59756028  0.71554946     0.11300
H1593       H  0.73222861  0.54763570  0.74143198     0.11300
H1594       H  0.78788457  0.59355340  0.83155534     0.11300
C1595       C  0.71170102  0.83544559  0.74028552    -0.14800
C1596       C  0.72798553  0.82138203  0.70920183     0.07300
C1597       C  0.75589412  0.83473099  0.69562591    -0.14000
C1598       C  0.76798203  0.86133568  0.71447558    -0.14800
C1599       C  0.75244037  0.87414794  0.74739086     0.07300
C1600       C  0.72376280  0.86143576  0.75919569    -0.14800
H1601       H  0.69044872  0.82510590  0.75158397     0.11300
H1602       H  0.76919758  0.82351759  0.67238109     0.11300
H1603       H  0.78995095  0.87099061  0.70458230     0.11300
H1604       H  0.71077573  0.87124537  0.78375295     0.11300
C1605       C  0.52412589  0.48221359  0.51922632    -0.14800
C1606       C  0.51080837  0.50827444  0.53790863     0.07300
C1607       C  0.99118559  0.02477842  0.51770942    -0.14800
C1608       C  0.98283235  0.01613094  0.47876642    -0.14800
C1609       C  0.99598784  0.98970998  0.46065349     0.07300
C1610       C  0.51582084  0.47415144  0.48008403    -0.14800
H1611       H  0.54103485  0.46798855  0.53484620     0.11300
H1612       H  0.98044715  0.04520322  0.53055849     0.11300
H1613       H  0.96587014  0.03012960  0.46291023     0.11300
H1614       H  0.52649643  0.45384615  0.46684358     0.11300
C1615       C  0.63417686  0.59252287  0.62239031    -0.14800
C1616       C  0.60237516  0.60059643  0.62253953     0.07300
C1617       C  0.59454018  0.63238856  0.62115912    -0.14800
C1618       C  0.61766842  0.65540608  0.62195365    -0.14800
C1619       C  0.64942795  0.64742364  0.62406687     0.07300
C1620       C  0.65739478  0.61563189  0.62313146    -0.14800
H1621       H  0.64117587  0.56834035  0.62363036     0.11300
H1622       H  0.57038483  0.63963384  0.62113092     0.11300
H1623       H  0.61052054  0.67955839  0.62244600     0.11300
H1624       H  0.68155797  0.60852297  0.62486215     0.11300
C1625       C  0.65341344  0.50968222  0.73375389    -0.14800
C1626       C  0.62572427  0.50670845  0.75519756     0.07300
C1627       C  0.62800040  0.98906590  0.79155543    -0.14800
C1628       C  0.65647940  0.97785239  0.80669706    -0.14800
C1629       C  0.68421987  0.98339975  0.78576456     0.07300
C1630       C  0.68315583  0.00221141  0.75135262    -0.14800
H1631       H  0.65340339  0.51958561  0.70404433     0.11300
H1632       H  0.60655944  0.98306376  0.80665592     0.11300
H1633       H  0.65661653  0.96376312  0.83345562     0.11300
H1634       H  0.70407431  0.00769656  0.73485201     0.11300
C1635       C  0.91476775  0.53850045  0.74152267    -0.14800
C1636       C  0.92773207  0.52276494  0.70916149     0.07300
C1637       C  0.91643347  0.99176155  0.69749445    -0.14800
C1638       C  0.88982728  0.98009324  0.71663206    -0.14800
C1639       C  0.87562169  0.99745666  0.74699917     0.07300
C1640       C  0.88802719  0.52734989  0.75966666    -0.14800
H1641       H  0.92642774  0.55854791  0.75425459     0.11300
H1642       H  0.92878884  0.97717774  0.67655260     0.11300
H1643       H  0.88136846  0.95706081  0.70922508     0.11300
H1644       H  0.87910073  0.53978515  0.78524098     0.11300
C1645       C  0.97236746  0.62471997  0.76450280    -0.14800
C1646       C  0.50113912  0.62008614  0.75800242     0.07300
C1647       C  0.51978480  0.63567031  0.78609534    -0.14800
C1648       C  0.01692800  0.66527902  0.79582884    -0.14800
C1649       C  0.98513187  0.67307611  0.79770478     0.07300
C1650       C  0.96285734  0.65204464  0.78334475    -0.14800
H1651       H  0.95492642  0.60962449  0.75136281     0.11300
H1652       H  0.54361528  0.62842953  0.79130308     0.11300
H1653       H  0.03447076  0.68165586  0.80592650     0.11300
H1654       H  0.93834027  0.65802993  0.78351015     0.11300
C1655       C  0.97888284  0.89425406  0.74814098    -0.14800
C1656       C  0.49714724  0.86971995  0.74279490     0.07300
C1657       C  0.52092670  0.87156211  0.71408155    -0.14800
C1658       C  0.53037446  0.90065461  0.69898178    -0.14800
C1659       C  0.51589502  0.92803417  0.71230879     0.07300
C1660       C  0.98822495  0.92296630  0.73295497    -0.14800
H1661       H  0.95860912  0.89302306  0.76720191     0.11300
H1662       H  0.53355472  0.85084855  0.70546774     0.11300
H1663       H  0.55001167  0.90186580  0.67889808     0.11300
H1664       H  0.97450169  0.94329189  0.74036424     0.11300
loop_ 
_geom_bond_atom_site_label_1 
_geom_bond_atom_site_label_2 
_geom_bond_distance 
_geom_bond_site_symmetry_2 
_ccdc_geom_bond_type 
Fe1          O17   2.116       .  S
Fe1           O7   2.043       .  S
Fe1          O14   2.069   1_545  S
Fe1         O422   2.114   1_545  S
Fe1          O12   1.953       .  S
Fe2           O5   2.081       .  S
Fe2           O9   2.079       .  S
Fe2         O845   2.079       .  S
Fe2         O850   2.073   1_455  S
Fe2          O12   1.957       .  S
Fe3          O21   2.059       .  S
Fe3          O15   2.069       .  S
Fe3         O840   2.064   1_455  S
Fe3         O420   2.035   1_545  S
Fe3          O12   1.962       .  S
O4         Fe419   2.037       .  S
O4           C11   1.270       .  A
O5           C19   1.269       .  A
O6         Fe417   2.108       .  S
O6           C11   1.281       .  A
O7           C10   1.263       .  A
O8         Fe835   2.058       .  S
O8           C20   1.271       .  A
O9           C22   1.282       .  A
C10          O15   1.264       .  A
C10         C378   1.472       .  S
C11         C411   1.481       .  S
O13        Fe834   2.071       .  S
O13         C848   1.264       .  A
O14          C16   1.263   1_565  A
C16         O845   1.265       .  A
C16         C358   1.498       .  S
O17          C22   1.288       .  A
O18        Fe834   2.073       .  S
O18          C20   1.273       .  A
C19          O21   1.264       .  A
C19         C398   1.474       .  S
C20         C388   1.461       .  S
C22         C368   1.502       .  S
Fe23         O39   2.079       .  S
Fe23         O29   2.082       .  S
Fe23         O36   2.080       .  S
Fe23         O28   2.068       .  S
Fe23         O34   1.959       .  S
Fe24         O27   2.049       .  S
Fe24         O31   2.115       .  S
Fe24         O35   2.068       .  S
Fe24         O40   2.111       .  S
Fe24         O34   1.953       .  S
Fe25         O43   2.070       .  S
Fe25         O30   2.029       .  S
Fe25         O37   2.058       .  S
Fe25         O26   2.065       .  S
Fe25         O34   1.964       .  S
O26          C33   1.272       .  A
O27          C41   1.265       .  A
O28          C33   1.272       .  A
O29          C32   1.269       .  A
O30          C42   1.268       .  A
O31          C44   1.287       .  A
C32          O37   1.264       .  A
C32         C318   1.472       .  S
C33         C348   1.457       .  S
O35          C38   1.264       .  A
O36          C38   1.265       .  A
C38         C308   1.498       .  S
O39          C44   1.282       .  A
O40          C42   1.281       .  A
C41          O43   1.265       .  A
C41         C338   1.474       .  S
C42         C331   1.481       .  S
C44         C371   1.502       .  S
Fe45         O61   2.121       .  S
Fe45         O51   2.044       .  S
Fe45         O58   2.072       .  S
Fe45         O50   2.114       .  S
Fe45         O56   1.955       .  S
Fe46         O49   2.077       .  S
Fe46         O53   2.074       .  S
Fe46         O57   2.077       .  S
Fe46         O62   2.068       .  S
Fe46         O56   1.958       .  S
Fe47         O65   2.066       .  S
Fe47         O52   2.064       .  S
Fe47         O59   2.072       .  S
Fe47         O48   2.035       .  S
Fe47         O56   1.964       .  S
O48          C55   1.268       .  A
O49          C63   1.268       .  A
O50          C55   1.282       .  A
O51          C54   1.264       .  A
O52          C64   1.272       .  A
O53          C66   1.281       .  A
C54          O59   1.266       .  A
C54         C268   1.472       .  S
C55         C298   1.483       .  S
O57          C60   1.265       .  A
O58          C60   1.264       .  A
C60         C311   1.498       .  S
O61          C66   1.288       .  A
O62          C64   1.273       .  A
C63          O65   1.265       .  A
C63         C291   1.479       .  S
C64         C278   1.456       .  S
C66         C258   1.503       .  S
Fe67         O83   2.083       .  S
Fe67         O80   2.068       .  S
Fe67        O905   2.078       .  S
Fe67        O904   2.084       .  S
Fe67         O78   1.951       .  S
Fe68         O71   2.052       .  S
Fe68         O75   2.116       .  S
Fe68        O495   2.073       .  S
Fe68        O500   2.117       .  S
Fe68         O78   1.949       .  S
Fe69         O87   2.045       .  S
Fe69         O81   2.059       .  S
Fe69        O490   2.042       .  S
Fe69        O902   2.050       .  S
Fe69         O78   1.956       .  S
O70        Fe901   2.050   1_455  S
O70          C77   1.267       .  A
O71          C85   1.265       .  A
O72        Fe899   2.090   1_455  S
O72          C77   1.276       .  A
O73        Fe899   2.082   1_455  S
O73         C908   1.269   1_455  A
O74        Fe485   2.035   1_545  S
O74          C86   1.271       .  A
O75          C88   1.289       .  A
C76          O81   1.264       .  A
C76         O905   1.269       .  A
C76        C1063   1.470       .  S
C77         C238   1.476       .  S
O79        Fe484   2.072       .  S
O79         C498   1.263       .  A
O80          C82   1.263       .  A
C82         O495   1.264       .  A
C82         C361   1.496       .  S
O83          C88   1.285       .  A
O84        Fe484   2.108   1_545  S
O84          C86   1.283       .  A
C85          O87   1.259       .  A
C85         C664   1.466       .  S
C86         C221   1.484       .  S
C88         C261   1.503       .  S
Fe89        O105   2.090       .  S
Fe89         O95   2.058       .  S
Fe89        O102   2.071       .  S
Fe89         O94   2.090       .  S
Fe89        O100   1.979       .  S
Fe90        O101   2.074       .  S
Fe90        O106   2.088   1_655  S
Fe90        O925   2.061       .  S
Fe90        O929   2.090       .  S
Fe90        O932   1.981       .  S
Fe91        O109   2.062       .  S
Fe91        O103   2.064       .  S
Fe91         O92   2.038       .  S
Fe91        O928   2.039       .  S
Fe91        O100   1.984       .  S
O92          C99   1.265       .  A
O93        Fe922   2.061       .  S
O93         C107   1.268       .  A
O94          C99   1.275       .  A
O95          C98   1.266       .  A
O96        Fe923   2.042   1_455  S
O96         C108   1.265       .  A
O97        Fe922   2.089       .  S
O97         C110   1.277       .  A
C98         O103   1.265       .  A
C98         C328   1.467       .  S
C99         C401   1.463       .  S
O100       Fe922   1.977       .  S
O101        C936   1.267       .  A
O102        C104   1.267       .  A
C104        O933   1.266       .  A
C104        C198   1.493       .  S
O105        C110   1.278       .  A
O106        C108   1.274       .  A
C107        O109   1.266       .  A
C107       C1240   1.468       .  S
C108        C321   1.465       .  S
C110        C208   1.501       .  S
Fe111       O127   2.105       .  S
Fe111       O117   2.055       .  S
Fe111       O124   2.064       .  S
Fe111       O532   2.092       .  S
Fe111       O122   1.951       .  S
Fe112       O115   2.057       .  S
Fe112       O119   2.097       .  S
Fe112       O123   2.058       .  S
Fe112       O128   2.090       .  S
Fe112       O122   1.953       .  S
Fe113       O131   2.058       .  S
Fe113       O118   2.052       .  S
Fe113       O125   2.052       .  S
Fe113       O530   2.057       .  S
Fe113       O122   1.952       .  S
O114       Fe529   2.055   1_545  S
O114        C121   1.274       .  A
O115        C129   1.264       .  A
O116       Fe527   2.093   1_545  S
O116        C121   1.281       .  A
O117        C120   1.263       .  A
O118        C130   1.271       .  A
O119        C132   1.289       .  A
C120        O125   1.259       .  A
C120        C391   1.473       .  S
C121        C341   1.483       .  S
O123        C126   1.259       .  A
O124        C126   1.261       .  A
C126        C191   1.491       .  S
O127        C132   1.290       .  A
O128        C130   1.279       .  A
C129        O131   1.261       .  A
C129        C351   1.468       .  S
C130        C381   1.481       .  S
C132        C211   1.501       .  S
Fe133       O149   2.081       .  S
Fe133       O139   2.082       .  S
Fe133       O146   2.073       .  S
Fe133       O970   2.079   1_455  S
Fe133       O144   1.959       .  S
Fe134       O137   2.060       .  S
Fe134       O141   2.101       .  S
Fe134       O145   2.073       .  S
Fe134       O150   2.102       .  S
Fe134       O144   1.957       .  S
Fe135       O153   2.075       .  S
Fe135       O140   2.041       .  S
Fe135       O147   2.067       .  S
Fe135       O968   2.060   1_455  S
Fe135       O144   1.962       .  S
O136       Fe967   2.043       .  S
O136        C143   1.265       .  A
O137        C151   1.266       .  A
O138       Fe965   2.090       .  S
O138        C143   1.273       .  A
O139        C142   1.271       .  A
O140        C152   1.269       .  A
O141        C154   1.282       .  A
C142        O147   1.269       .  A
C142        C218   1.471       .  S
C143        C288   1.466       .  S
O145        C148   1.267       .  A
O146        C148   1.266       .  A
C148        C201   1.495       .  S
O149        C154   1.279       .  A
O150        C152   1.280       .  A
C151        O153   1.266       .  A
C151        C301   1.473       .  S
C152        C228   1.469       .  S
C154        C178   1.498       .  S
Fe155       O171   2.083       .  S
Fe155       O161   2.072       .  S
Fe155       O168   2.062       .  S
Fe155       O160   2.086       .  S
Fe155       O166   1.951       .  S
Fe156       O159   2.053       .  S
Fe156       O163   2.107       .  S
Fe156       O583   2.072   1_545  S
Fe156       O588   2.111   1_545  S
Fe156       O166   1.948       .  S
Fe157       O175   2.043       .  S
Fe157       O169   2.051       .  S
Fe157       O158   2.054       .  S
Fe157       O578   2.035   1_545  S
Fe157       O166   1.954       .  S
O158        C165   1.269       .  A
O159        C173   1.265       .  A
O160        C165   1.276       .  A
O161        C164   1.268       .  A
O162       Fe573   2.038       .  S
O162        C174   1.271       .  A
O163        C176   1.288       .  A
C164        O169   1.261       .  A
C164        C281   1.468       .  S
C165        C251   1.474       .  S
O167       Fe572   2.074       .  S
O167        C586   1.263       .  A
O168        C170   1.262       .  A
C170        O583   1.264   1_545  A
C170        C188   1.491       .  S
O171        C176   1.285       .  A
O172       Fe572   2.107       .  S
O172        C174   1.282       .  A
C173        O175   1.259       .  A
C173        C657   1.465       .  S
C174        C271   1.487       .  S
C176        C181   1.497       .  S
C177        C178   1.409       .  A
C177        C182   1.405       .  A
C177        H183   1.083       .  S
C178        C179   1.409       .  A
C179        C180   1.404       .  A
C179        H184   1.083       .  S
C180        C181   1.409       .  A
C180        H185   1.083       .  S
C181        C182   1.408       .  A
C182        H186   1.083       .  S
C187        C188   1.408       .  A
C187        C192   1.401   1_554  A
C187        H193   1.083       .  S
C188        C605   1.407   1_545  A
C189        C190   1.403   1_554  A
C189        C604   1.406       .  A
C189        H194   1.083       .  S
C190        C191   1.409       .  A
C190        H195   1.083       .  S
C191        C608   1.406       .  A
C192        C607   1.407   1_545  A
C192        H196   1.083       .  S
C197        C202   1.403   1_556  A
C197       C1030   1.408   1_455  A
C197        H203   1.083       .  S
C198        C199   1.408       .  A
C198       C1029   1.408       .  A
C199        C200   1.402   1_556  A
C199        H204   1.083       .  S
C200       C1033   1.408       .  A
C200        H205   1.083       .  S
C201        C202   1.407       .  A
C201       C1032   1.408   1_455  A
C202        H206   1.083       .  S
C207        C208   1.409       .  A
C207        C212   1.406       .  A
C207        H213   1.083       .  S
C208        C209   1.409       .  A
C209        C210   1.405       .  A
C209        H214   1.083       .  S
C210        C211   1.409       .  A
C210        H215   1.083       .  S
C211        C212   1.410       .  A
C212        H216   1.083       .  S
C217        C218   1.400       .  A
C217        C222   1.401       .  A
C217        H223   1.083       .  S
C218       C1051   1.406   1_455  A
C219        C220   1.407       .  A
C219       C1050   1.407       .  A
C219        H224   1.083       .  S
C220        C221   1.406       .  A
C220        H225   1.083       .  S
C221       C1054   1.410       .  A
C222       C1053   1.409   1_455  A
C222        H226   1.084       .  S
C227        C228   1.400       .  A
C227        C232   1.397       .  A
C227        H233   1.083       .  S
C228        C229   1.408   1_455  A
C229        C230   1.400       .  A
C229        H234   1.084       .  S
C230        C231   1.400       .  A
C230        H235   1.083       .  S
C231        C908   1.470       .  S
C231        C232   1.406   1_655  A
C232        H236   1.084       .  S
C237        C238   1.403       .  A
C237        C242   1.406       .  A
C237        H243   1.082       .  S
C238        C239   1.408       .  A
C239        C240   1.384       .  A
C239        H244   1.083       .  S
C240        C241   1.395       .  A
C240        H245   1.084       .  S
C241        C589   1.467       .  S
C241        C242   1.409       .  A
C242        H246   1.083       .  S
C247        C248   1.396       .  A
C247        C252   1.385       .  A
C247        H253   1.084       .  S
C248        C501   1.468       .  S
C248        C665   1.410   1_565  A
C249        C250   1.404       .  A
C249        C664   1.409       .  A
C249        H254   1.083       .  S
C250        C667   1.402       .  A
C250        H255   1.082       .  S
C251        C252   1.407   1_545  A
C251        C666   1.403       .  A
C252        H256   1.083       .  S
C257        C258   1.410       .  A
C257        C262   1.410       .  A
C257        H263   1.083       .  S
C258        C259   1.409       .  A
C259        C260   1.403       .  A
C259        H264   1.083       .  S
C260        C261   1.408       .  A
C260        H265   1.083       .  S
C261        C262   1.411       .  A
C262        H266   1.083       .  S
C267        C268   1.408       .  A
C267        C272   1.409       .  A
C267        H273   1.083       .  S
C268        C269   1.396       .  A
C269        C270   1.386       .  A
C269        H274   1.084       .  S
C270        C271   1.409       .  A
C270        H275   1.081       .  S
C271        C272   1.407       .  A
C272        H276   1.082       .  S
C277        C278   1.405       .  A
C277        C282   1.402       .  A
C277        H283   1.084       .  S
C278        C279   1.397       .  A
C279        C280   1.389       .  A
C279        H284   1.084       .  S
C280        C281   1.404       .  A
C280        H285   1.084       .  S
C281        C282   1.404       .  A
C282        H286   1.083       .  S
C287        C288   1.399       .  A
C287        C292   1.395       .  A
C287        H293   1.084       .  S
C288        C289   1.406       .  A
C289        C290   1.405       .  A
C289        H294   1.083       .  S
C290        C291   1.404       .  A
C290        H295   1.083       .  S
C291        C292   1.406       .  A
C292        H296   1.084       .  S
C297        C298   1.410       .  A
C297        C302   1.393       .  A
C297        H303   1.084       .  S
C298        C299   1.405       .  A
C299        C300   1.408       .  A
C299        H304   1.083       .  S
C300        C301   1.409       .  A
C300        H305   1.083       .  S
C301        C302   1.397       .  A
C302        H306   1.084       .  S
C307        C308   1.408       .  A
C307        C312   1.404       .  A
C307        H313   1.083       .  S
C308        C309   1.409       .  A
C309        C310   1.406       .  A
C309        H314   1.083       .  S
C310        C311   1.409       .  A
C310        H315   1.083       .  S
C311        C312   1.408       .  A
C312        H316   1.083       .  S
C317        C318   1.405       .  A
C317        C322   1.397       .  A
C317        H323   1.083       .  S
C318        C319   1.401       .  A
C319        C320   1.401       .  A
C319        H324   1.083       .  S
C320        C321   1.407       .  A
C320        H325   1.084       .  S
C321        C322   1.400       .  A
C322        H326   1.084       .  S
C327        C328   1.396       .  A
C327        C332   1.391       .  A
C327        H333   1.084       .  S
C328        C329   1.407       .  A
C329        C330   1.406       .  A
C329        H334   1.083       .  S
C330        C331   1.404       .  A
C330        H335   1.083       .  S
C331        C332   1.410       .  A
C332        H336   1.084       .  S
C337        C338   1.409       .  A
C337        C342   1.409       .  A
C337        H343   1.083       .  S
C338        C339   1.397       .  A
C339        C340   1.387       .  A
C339        H344   1.084       .  S
C340        C341   1.408       .  A
C340        H345   1.082       .  S
C341        C342   1.406       .  A
C342        H346   1.082       .  S
C347        C348   1.396       .  A
C347        C352   1.388       .  A
C347        H353   1.084       .  S
C348        C349   1.406       .  A
C349        C350   1.403       .  A
C349        H354   1.083       .  S
C350        C351   1.403       .  A
C350        H355   1.083       .  S
C351        C352   1.405       .  A
C352        H356   1.084       .  S
C357        C358   1.409   1_565  A
C357        C362   1.405       .  A
C357        H363   1.083       .  S
C358       C1607   1.408   1_455  A
C359        C360   1.403       .  A
C359       C1606   1.409       .  A
C359        H364   1.083       .  S
C360        C361   1.407       .  A
C360        H365   1.083       .  S
C361       C1610   1.409       .  A
C362       C1609   1.409   1_455  A
C362        H366   1.083       .  S
C367        C368   1.410       .  A
C367        C372   1.408       .  A
C367        H373   1.083       .  S
C368        C369   1.409       .  A
C369        C370   1.404       .  A
C369        H374   1.083       .  S
C370        C371   1.409       .  A
C370        H375   1.083       .  S
C371        C372   1.410       .  A
C372        H376   1.083       .  S
C377        C378   1.398       .  A
C377        C798   1.386       .  A
C377        H383   1.084       .  S
C378        C795   1.408   1_545  A
C379        C380   1.408       .  A
C379        C794   1.409       .  A
C379        H384   1.083       .  S
C380        C381   1.405       .  A
C380        H385   1.082       .  S
C381        C382   1.409       .  A
C382        C793   1.384       .  A
C382        H386   1.083       .  S
C387        C388   1.398       .  A
C387        C392   1.385       .  A
C387        H393   1.084       .  S
C388        C805   1.404   1_545  A
C389        C390   1.404       .  A
C389        C804   1.404       .  A
C389        H394   1.083       .  S
C390        C391   1.406       .  A
C390        H395   1.083       .  S
C391        C808   1.404       .  A
C392        C807   1.405       .  A
C392        H396   1.083       .  S
C397        C402   1.395       .  A
C397       C1230   1.406       .  A
C397        H403   1.084       .  S
C398        C399   1.402       .  A
C398       C1229   1.406   1_455  A
C399       C1232   1.402       .  A
C399        H404   1.083       .  S
C400        C401   1.407       .  A
C400       C1231   1.402       .  A
C400        H405   1.084       .  S
C401        C402   1.399       .  A
C402        H406   1.084       .  S
C407        C412   1.391       .  A
C407       C1240   1.396       .  A
C407        H413   1.084       .  S
C408        C939   1.468       .  S
C408        C409   1.407   1_655  A
C408       C1239   1.396       .  A
C409        C410   1.407       .  A
C409        H414   1.083       .  S
C410        C411   1.405       .  A
C410        H415   1.083       .  S
C411       C1244   1.409   1_455  A
C412       C1243   1.410       .  A
C412        H416   1.084       .  S
Fe417       O433   2.111       .  S
Fe417       O423   2.043       .  S
Fe417       O430   2.064       .  S
Fe417       O428   1.957       .  S
Fe418       O421   2.076       .  S
Fe418       O425   2.079       .  S
Fe418      O1261   2.070       .  S
Fe418      O1266   2.076   1_455  S
Fe418       O428   1.960       .  S
Fe419       O437   2.058       .  S
Fe419      O1256   2.062   1_455  S
Fe419       O431   2.065       .  S
Fe419       O428   1.961       .  S
O420        C427   1.269       .  A
O421        C435   1.267       .  A
O422        C427   1.283       .  A
O423        C426   1.264       .  A
O424      Fe1251   2.062       .  S
O424        C436   1.271       .  A
O425        C438   1.282       .  A
C426        O431   1.263       .  A
C426        C794   1.473       .  S
C427        C827   1.483       .  S
O429      Fe1250   2.069       .  S
O429       C1264   1.263       .  A
O430        C432   1.263       .  A
C432       O1261   1.264       .  A
C432        C774   1.492       .  S
O433        C438   1.286       .  A
O434      Fe1250   2.074       .  S
O434        C436   1.274       .  A
C435        O437   1.264       .  A
C435        C814   1.468       .  S
C436        C804   1.461       .  S
C438        C784   1.501       .  S
Fe439       O455   2.080       .  S
Fe439       O445   2.064       .  S
Fe439       O452   2.068       .  S
Fe439       O444   2.078       .  S
Fe439       O450   1.955       .  S
Fe440       O443   2.047       .  S
Fe440       O447   2.107       .  S
Fe440       O451   2.071       .  S
Fe440       O456   2.098       .  S
Fe440       O450   1.958       .  S
Fe441       O459   2.073       .  S
Fe441       O446   2.041       .  S
Fe441       O453   2.070       .  S
Fe441       O442   2.059       .  S
Fe441       O450   1.970       .  S
O442        C449   1.270       .  A
O443        C457   1.264       .  A
O444        C449   1.274       .  A
O445        C448   1.268       .  A
O446        C458   1.268       .  A
O447        C460   1.284       .  A
C448        O453   1.267       .  A
C448        C734   1.479       .  S
C449        C764   1.462       .  S
O451        C454   1.264       .  A
O452        C454   1.264       .  A
C454        C724   1.493       .  S
O455        C460   1.281       .  A
O456        C458   1.279       .  A
C457        O459   1.266       .  A
C457        C754   1.472       .  S
C458        C747   1.471       .  S
C460        C787   1.500       .  S
Fe461       O477   2.125       .  S
Fe461       O467   2.047       .  S
Fe461       O474   2.068       .  S
Fe461       O466   2.119       .  S
Fe461       O472   1.951       .  S
Fe462       O465   2.082       .  S
Fe462       O469   2.064       .  S
Fe462       O473   2.072       .  S
Fe462       O478   2.064       .  S
Fe462       O472   1.957       .  S
Fe463       O481   2.063       .  S
Fe463       O468   2.065       .  S
Fe463       O475   2.069       .  S
Fe463       O464   2.034       .  S
Fe463       O472   1.957       .  S
O464        C471   1.270       .  A
O465        C479   1.269       .  A
O466        C471   1.284       .  A
O467        C470   1.264       .  A
O468        C480   1.272       .  A
O469        C482   1.280       .  A
C470        O475   1.264       .  A
C470        C684   1.472       .  S
C471        C714   1.488       .  S
O473        C476   1.264       .  A
O474        C476   1.264       .  A
C476        C727   1.494       .  S
O477        C482   1.289       .  A
O478        C480   1.271       .  A
C479        O481   1.265       .  A
C479        C707   1.473       .  S
C480        C694   1.457       .  S
C482        C674   1.500       .  S
Fe483       O499   2.088       .  S
Fe483      O1321   2.072       .  S
Fe483       O496   2.066       .  S
Fe483      O1320   2.097       .  S
Fe483       O494   1.947       .  S
Fe484       O487   2.052       .  S
Fe484       O491   2.110       .  S
Fe484       O494   1.949       .  S
Fe485       O503   2.050       .  S
Fe485       O497   2.057       .  S
Fe485      O1318   2.050       .  S
Fe485       O494   1.959       .  S
O486      Fe1317   2.045   1_455  S
O486        C493   1.264       .  A
O487        C501   1.265       .  A
O488      Fe1315   2.090   1_455  S
O488        C493   1.274       .  A
O489      Fe1315   2.089   1_455  S
O489       C1324   1.274   1_455  A
O490        C502   1.272       .  A
O491        C504   1.288       .  A
C492       O1321   1.269       .  A
C492        O497   1.265       .  A
C492       C1479   1.474       .  S
C493        C654   1.471       .  S
O496        C498   1.262       .  A
C498        C777   1.495       .  S
O499        C504   1.287       .  A
O500        C502   1.284       .  A
C501        O503   1.260       .  A
C502        C637   1.489       .  S
C504        C677   1.501       .  S
Fe505       O521   2.077       .  S
Fe505       O511   2.079       .  S
Fe505       O518   2.071       .  S
Fe505       O510   2.079       .  S
Fe505       O516   1.953       .  S
Fe506      O1341   2.080   1_655  S
Fe506      O1345   2.079       .  S
Fe506       O517   2.075       .  S
Fe506       O522   2.081   1_655  S
Fe506      O1348   1.964       .  S
Fe507       O525   2.078       .  S
Fe507      O1344   2.034       .  S
Fe507       O519   2.060       .  S
Fe507       O508   2.061       .  S
Fe507       O516   1.960       .  S
O508        C515   1.268       .  A
O509      Fe1338   2.053       .  S
O509        C523   1.265       .  A
O510        C515   1.271       .  A
O511        C514   1.271       .  A
O512      Fe1339   2.055   1_455  S
O512        C524   1.268       .  A
O513      Fe1338   2.099       .  S
O513        C526   1.281       .  A
C514        O519   1.268       .  A
C514        C744   1.464       .  S
C515        C817   1.463       .  S
O516      Fe1338   1.952       .  S
O517       C1352   1.267       .  A
O518        C520   1.267       .  A
C520       O1349   1.267       .  A
C520        C614   1.491       .  S
O521        C526   1.278       .  A
O522        C524   1.271       .  A
C523        O525   1.266       .  A
C523       C1656   1.475       .  S
C524        C737   1.465       .  S
C526        C624   1.497       .  S
Fe527       O543   2.101       .  S
Fe527       O533   2.049       .  S
Fe527       O540   2.060       .  S
Fe527       O538   1.954       .  S
Fe528       O531   2.054       .  S
Fe528       O535   2.095       .  S
Fe528       O539   2.062       .  S
Fe528       O544   2.087       .  S
Fe528       O538   1.954       .  S
Fe529       O547   2.063       .  S
Fe529       O534   2.053       .  S
Fe529       O541   2.058       .  S
Fe529       O538   1.958       .  S
O530        C537   1.276       .  A
O531        C545   1.264       .  A
O532        C537   1.281       .  A
O533        C536   1.263       .  A
O534        C546   1.273       .  A
O535        C548   1.288       .  A
C536        O541   1.261       .  A
C536        C807   1.476   1_565  S
C537        C757   1.482       .  S
O539        C542   1.260       .  A
O540        C542   1.260       .  A
C542        C607   1.491       .  S
O543        C548   1.289       .  A
O544        C546   1.279       .  A
C545        O547   1.262       .  A
C545        C767   1.474       .  S
C546        C797   1.482       .  S
C548        C627   1.498       .  S
Fe549       O565   2.084       .  S
Fe549       O555   2.063       .  S
Fe549       O562   2.075       .  S
Fe549      O1386   2.087   1_455  S
Fe549       O560   1.978       .  S
Fe550       O553   2.058       .  S
Fe550       O557   2.088       .  S
Fe550       O561   2.067       .  S
Fe550       O566   2.088       .  S
Fe550       O560   1.979       .  S
Fe551       O569   2.074       .  S
Fe551       O556   2.039       .  S
Fe551       O563   2.069       .  S
Fe551      O1384   2.046   1_455  S
Fe551       O560   1.984       .  S
O552      Fe1383   2.041       .  S
O552        C559   1.268       .  A
O553        C567   1.267       .  A
O554      Fe1381   2.107       .  S
O554        C559   1.281       .  A
O555        C558   1.268       .  A
O556        C568   1.265       .  A
O557        C570   1.277       .  A
C558        O563   1.267       .  A
C558        C634   1.470       .  S
C559        C704   1.471       .  S
O561        C564   1.266       .  A
O562        C564   1.267       .  A
C564        C617   1.493       .  S
O565        C570   1.277       .  A
O566        C568   1.274       .  A
C567        O569   1.267       .  A
C567        C717   1.474       .  S
C568        C644   1.464       .  S
C570        C594   1.497       .  S
Fe571       O587   2.081       .  S
Fe571       O577   2.057       .  S
Fe571       O584   2.054       .  S
Fe571       O576   2.083       .  S
Fe571       O582   1.950       .  S
Fe572       O575   2.051       .  S
Fe572       O579   2.107       .  S
Fe572       O582   1.947       .  S
Fe573       O591   2.050       .  S
Fe573       O585   2.056       .  S
Fe573       O574   2.051       .  S
Fe573       O582   1.959       .  S
O574        C581   1.270       .  A
O575        C589   1.265       .  A
O576        C581   1.277       .  A
O577        C580   1.265       .  A
O578        C590   1.271       .  A
O579        C592   1.288       .  A
C580        O585   1.263       .  A
C580        C697   1.472       .  S
C581        C667   1.471       .  S
O584        C586   1.260       .  A
C586        C604   1.491       .  S
O587        C592   1.284       .  A
O588        C590   1.283       .  A
C589        O591   1.260       .  A
C590        C687   1.487       .  S
C592        C597   1.496       .  S
C593        C594   1.409       .  A
C593        C598   1.405       .  A
C593        H599   1.083       .  S
C594        C595   1.408       .  A
C595        C596   1.403       .  A
C595        H600   1.083       .  S
C596        C597   1.408       .  A
C596        H601   1.083       .  S
C597        C598   1.409       .  A
C598        H602   1.083       .  S
C603        C604   1.408       .  A
C603        C608   1.399   1_554  A
C603        H609   1.083       .  S
C605        C606   1.403   1_554  A
C605        H610   1.083       .  S
C606        C607   1.408       .  A
C606        H611   1.083       .  S
C608        H612   1.083       .  S
C613       C1446   1.407   1_455  A
C613        C618   1.401   1_556  A
C613        H619   1.083       .  S
C614       C1445   1.407       .  A
C614        C615   1.408       .  A
C615        C616   1.401   1_556  A
C615        H620   1.083       .  S
C616       C1449   1.407       .  A
C616        H621   1.083       .  S
C617       C1448   1.408   1_455  A
C617        C618   1.408       .  A
C618        H622   1.083       .  S
C623        C624   1.408       .  A
C623        C628   1.403       .  A
C623        H629   1.083       .  S
C624        C625   1.409       .  A
C625        C626   1.405       .  A
C625        H630   1.083       .  S
C626        C627   1.409       .  A
C626        H631   1.083       .  S
C627        C628   1.409       .  A
C628        H632   1.083       .  S
C633        C634   1.397       .  A
C633        C638   1.393       .  A
C633        H639   1.084       .  S
C634       C1467   1.407   1_455  A
C635       C1466   1.409       .  A
C635        C636   1.410       .  A
C635        H640   1.083       .  S
C636        C637   1.407       .  A
C636        H641   1.083       .  S
C637       C1470   1.409       .  A
C638       C1469   1.409   1_455  A
C638        H642   1.080       .  S
C643        C644   1.398       .  A
C643        C648   1.396       .  A
C643        H649   1.084       .  S
C644        C645   1.407   1_455  A
C645        C646   1.401       .  A
C645        H650   1.083       .  S
C646        C647   1.400   1_655  A
C646        H651   1.083       .  S
C647       C1324   1.471   1_455  S
C647        C648   1.406       .  A
C648        H652   1.084       .  S
C653        C654   1.401       .  A
C653        C658   1.403       .  A
C653        H659   1.082       .  S
C654        C655   1.408   1_565  A
C655        C656   1.385       .  A
C655        H660   1.084       .  S
C656        C657   1.396       .  A
C656        H661   1.084       .  S
C657        C658   1.409   1_545  A
C658        H662   1.083       .  S
C663        C664   1.395       .  A
C663        C668   1.384       .  A
C663        H669   1.084       .  S
C665        C666   1.405       .  A
C665        H670   1.083       .  S
C666        H671   1.082       .  S
C667        C668   1.407       .  A
C668        H672   1.082       .  S
C673        C674   1.409       .  A
C673        C678   1.409       .  A
C673        H679   1.083       .  S
C674        C675   1.410       .  A
C675        C676   1.401       .  A
C675        H680   1.083       .  S
C676        C677   1.407       .  A
C676        H681   1.083       .  S
C677        C678   1.412       .  A
C678        H682   1.083       .  S
C683        C684   1.409       .  A
C683        C688   1.409       .  A
C683        H689   1.083       .  S
C684        C685   1.396       .  A
C685        C686   1.387       .  A
C685        H690   1.084       .  S
C686        C687   1.410       .  A
C686        H691   1.082       .  S
C687        C688   1.407       .  A
C688        H692   1.082       .  S
C693        C694   1.404       .  A
C693        C698   1.403       .  A
C693        H699   1.083       .  S
C694        C695   1.396       .  A
C695        C696   1.384       .  A
C695        H700   1.083       .  S
C696        C697   1.405       .  A
C696        H701   1.084       .  S
C697        C698   1.406       .  A
C698        H702   1.083       .  S
C703        C704   1.400       .  A
C703        C708   1.398       .  A
C703        H709   1.084       .  S
C704        C705   1.409       .  A
C705        C706   1.402       .  A
C705        H710   1.083       .  S
C706        C707   1.401       .  A
C706        H711   1.083       .  S
C707        C708   1.406       .  A
C708        H712   1.083       .  S
C713        C714   1.411       .  A
C713        C718   1.391       .  A
C713        H719   1.083       .  S
C714        C715   1.406       .  A
C715        C716   1.409       .  A
C715        H720   1.083       .  S
C716        C717   1.408       .  A
C716        H721   1.083       .  S
C717        C718   1.397       .  A
C718        H722   1.084       .  S
C723        C724   1.407       .  A
C723        C728   1.404       .  A
C723        H729   1.083       .  S
C724        C725   1.408       .  A
C725        C726   1.402       .  A
C725        H730   1.083       .  S
C726        C727   1.407       .  A
C726        H731   1.083       .  S
C727        C728   1.409       .  A
C728        H732   1.083       .  S
C733        C734   1.406       .  A
C733        C738   1.389       .  A
C733        H739   1.084       .  S
C734        C735   1.406       .  A
C735        C736   1.408       .  A
C735        H740   1.083       .  S
C736        C737   1.407       .  A
C736        H741   1.083       .  S
C737        C738   1.398       .  A
C738        H742   1.084       .  S
C743        C744   1.398       .  A
C743        C748   1.398       .  A
C743        H749   1.083       .  S
C744        C745   1.405       .  A
C745        C746   1.399       .  A
C745        H750   1.084       .  S
C746        C747   1.400       .  A
C746        H751   1.083       .  S
C747        C748   1.409       .  A
C748        H752   1.084       .  S
C753        C754   1.408       .  A
C753        C758   1.407       .  A
C753        H759   1.083       .  S
C754        C755   1.398       .  A
C755        C756   1.388       .  A
C755        H760   1.084       .  S
C756        C757   1.408       .  A
C756        H761   1.082       .  S
C757        C758   1.406       .  A
C758        H762   1.083       .  S
C763        C764   1.398       .  A
C763        C768   1.389       .  A
C763        H769   1.084       .  S
C764        C765   1.406       .  A
C765        C766   1.406       .  A
C765        H770   1.083       .  S
C766        C767   1.405       .  A
C766        H771   1.083       .  S
C767        C768   1.405       .  A
C768        H772   1.083       .  S
C773        C774   1.408       .  A
C773        C778   1.402       .  A
C773        H779   1.083       .  S
C774       C1191   1.407   1_455  A
C775       C1190   1.409       .  A
C775        C776   1.404       .  A
C775        H780   1.083       .  S
C776        C777   1.407   1_545  A
C776        H781   1.083       .  S
C777       C1194   1.409       .  A
C778       C1193   1.408   1_455  A
C778        H782   1.083       .  S
C783        C784   1.410       .  A
C783        C788   1.408       .  A
C783        H789   1.083       .  S
C784        C785   1.409       .  A
C785        C786   1.403       .  A
C785        H790   1.083       .  S
C786        C787   1.408       .  A
C786        H791   1.083       .  S
C787        C788   1.410       .  A
C788        H792   1.083       .  S
C793        C794   1.397       .  A
C793        H799   1.084       .  S
C795        C796   1.408       .  A
C795        H800   1.083       .  S
C796        C797   1.406       .  A
C796        H801   1.082       .  S
C797        C798   1.408   1_565  A
C798        H802   1.082       .  S
C803        C804   1.400       .  A
C803        C808   1.389       .  A
C803        H809   1.084       .  S
C805        C806   1.405       .  A
C805        H810   1.083       .  S
C806        C807   1.407   1_565  A
C806        H811   1.083       .  S
C808        H812   1.084       .  S
C813       C1646   1.405       .  A
C813        C818   1.391       .  A
C813        H819   1.084       .  S
C814       C1645   1.405   1_455  A
C814        C815   1.400       .  A
C815       C1648   1.399       .  A
C815        H820   1.083       .  S
C816       C1647   1.405       .  A
C816        C817   1.406       .  A
C816        H821   1.083       .  S
C817        C818   1.398       .  A
C818        H822   1.084       .  S
C823       C1656   1.398       .  A
C823        C828   1.390       .  A
C823        H829   1.084       .  S
C824       C1355   1.469       .  S
C824       C1655   1.396       .  A
C824        C825   1.408   1_655  A
C825        C826   1.406       .  A
C825        H830   1.083       .  S
C826        C827   1.404       .  A
C826        H831   1.083       .  S
C827       C1660   1.411   1_455  A
C828       C1659   1.409       .  A
C828        H832   1.084       .  S
Fe833       O849   2.113       .  S
Fe833       O839   2.051       .  S
Fe833       O846   2.071       .  S
Fe833      O1254   2.111   1_545  S
Fe833       O844   1.954       .  S
Fe834       O837   2.078       .  S
Fe834       O841   2.074       .  S
Fe834       O844   1.959       .  S
Fe835       O853   2.059       .  S
Fe835       O847   2.061       .  S
Fe835      O1252   2.035   1_545  S
Fe835       O844   1.959       .  S
O836      Fe1251   2.037       .  S
O836        C843   1.270       .  A
O837        C851   1.268       .  A
O838      Fe1249   2.106       .  S
O838        C843   1.282       .  A
O839        C842   1.265       .  A
O840        C852   1.272       .  A
O841        C854   1.281       .  A
C842        O847   1.262       .  A
C842       C1210   1.472       .  S
C843       C1243   1.482       .  S
O846        C848   1.264       .  A
C848       C1190   1.495       .  S
O849        C854   1.287       .  A
O850        C852   1.274       .  A
C851        O853   1.264       .  A
C851       C1230   1.472       .  S
C852       C1220   1.460       .  S
C854       C1200   1.498       .  S
Fe855       O871   2.075       .  S
Fe855       O861   2.071       .  S
Fe855       O868   2.069       .  S
Fe855       O860   2.070       .  S
Fe855       O866   1.959       .  S
Fe856       O859   2.047       .  S
Fe856       O863   2.111       .  S
Fe856       O867   2.068       .  S
Fe856       O872   2.106       .  S
Fe856       O866   1.959       .  S
Fe857       O875   2.071       .  S
Fe857       O862   2.038       .  S
Fe857       O869   2.067       .  S
Fe857       O858   2.063       .  S
Fe857       O866   1.968       .  S
O858        C865   1.272       .  A
O859        C873   1.265       .  A
O860        C865   1.273       .  A
O861        C864   1.267       .  A
O862        C874   1.269       .  A
O863        C876   1.286       .  A
C864        O869   1.265       .  A
C864       C1150   1.479       .  S
C865       C1180   1.458       .  S
O867        C870   1.263       .  A
O868        C870   1.263       .  A
C870       C1140   1.494       .  S
O871        C876   1.282       .  A
O872        C874   1.280       .  A
C873        O875   1.265       .  A
C873       C1170   1.474       .  S
C874       C1163   1.483       .  S
C876       C1203   1.498       .  S
Fe877       O893   2.119       .  S
Fe877       O883   2.048       .  S
Fe877       O890   2.071       .  S
Fe877       O882   2.111       .  S
Fe877       O888   1.956       .  S
Fe878       O881   2.063       .  S
Fe878       O885   2.073       .  S
Fe878       O889   2.067       .  S
Fe878       O894   2.068       .  S
Fe878       O888   1.957       .  S
Fe879       O897   2.068       .  S
Fe879       O884   2.064       .  S
Fe879       O891   2.073       .  S
Fe879       O880   2.037       .  S
Fe879       O888   1.968       .  S
O880        C887   1.269       .  A
O881        C895   1.267       .  A
O882        C887   1.282       .  A
O883        C886   1.264       .  A
O884        C896   1.272       .  A
O885        C898   1.280       .  A
C886        O891   1.265       .  A
C886       C1100   1.474       .  S
C887       C1130   1.484       .  S
O889        C892   1.262       .  A
O890        C892   1.263       .  A
C892       C1143   1.494       .  S
O893        C898   1.288       .  A
O894        C896   1.273       .  A
C895        O897   1.266       .  A
C895       C1123   1.477       .  S
C896       C1110   1.458       .  S
C898       C1090   1.502       .  S
Fe899       O915   2.088       .  S
Fe899       O912   2.071       .  S
Fe899       O910   1.952       .  S
Fe900       O903   2.044       .  S
Fe900       O907   2.109       .  S
Fe900      O1327   2.064       .  S
Fe900      O1332   2.110       .  S
Fe900       O910   1.946       .  S
Fe901       O919   2.057       .  S
Fe901      O1322   2.048       .  S
Fe901       O913   2.061       .  S
Fe901       O910   1.955       .  S
O902        C909   1.268       .  A
O903        C917   1.263       .  A
O904        C909   1.275       .  A
O906      Fe1317   2.047   1_545  S
O906        C918   1.271       .  A
O907        C920   1.287       .  A
C908        O913   1.266       .  A
C909       C1070   1.474       .  S
O911      Fe1316   2.072       .  S
O911       C1330   1.265       .  A
O912        C914   1.263       .  A
C914       O1327   1.262       .  A
C914       C1193   1.492       .  S
O915        C920   1.286       .  A
O916      Fe1316   2.110   1_545  S
O916        C918   1.283       .  A
C917        O919   1.261       .  A
C917       C1496   1.471       .  S
C918       C1053   1.474       .  S
C920       C1093   1.501       .  S
Fe921       O937   2.091       .  S
Fe921       O927   2.056       .  S
Fe921       O934   2.071       .  S
Fe921       O926   2.090       .  S
Fe921       O932   1.978       .  S
Fe922       O933   2.070       .  S
Fe922       O938   2.092       .  S
Fe923       O941   2.065       .  S
Fe923       O935   2.071       .  S
Fe923       O924   2.036       .  S
Fe923       O932   1.985       .  S
O924        C931   1.264       .  A
O925        C939   1.267       .  A
O926        C931   1.274       .  A
O927        C930   1.267       .  A
O928        C940   1.264       .  A
O929        C942   1.277       .  A
C930        O935   1.267       .  A
C930       C1160   1.470       .  S
C931       C1233   1.464       .  S
O934        C936   1.267       .  A
C936       C1030   1.495       .  S
O937        C942   1.277       .  A
O938        C940   1.274       .  A
C939        O941   1.266       .  A
C940       C1153   1.465       .  S
C942       C1040   1.502       .  S
Fe943       O959   2.107       .  S
Fe943       O949   2.046       .  S
Fe943       O956   2.066       .  S
Fe943      O1364   2.091       .  S
Fe943       O954   1.946       .  S
Fe944       O947   2.065       .  S
Fe944       O951   2.098       .  S
Fe944       O955   2.067       .  S
Fe944       O960   2.097       .  S
Fe944       O954   1.947       .  S
Fe945       O963   2.055       .  S
Fe945       O950   2.058       .  S
Fe945       O957   2.061       .  S
Fe945      O1362   2.046       .  S
Fe945       O954   1.954       .  S
O946      Fe1361   2.059   1_545  S
O946        C953   1.275       .  A
O947        C961   1.266       .  A
O948      Fe1359   2.088   1_545  S
O948        C953   1.280       .  A
O949        C952   1.262       .  A
O950        C962   1.271       .  A
O951        C964   1.290       .  A
C952        O957   1.261       .  A
C952       C1223   1.476       .  S
C953       C1173   1.483       .  S
O955        C958   1.261       .  A
O956        C958   1.260       .  A
C958       C1023   1.495       .  S
O959        C964   1.291       .  A
O960        C962   1.279       .  A
C961        O963   1.263       .  A
C961       C1183   1.472       .  S
C962       C1213   1.485       .  S
C964       C1043   1.502       .  S
Fe965       O981   2.090       .  S
Fe965       O971   2.059       .  S
Fe965       O978   2.069       .  S
Fe965       O976   1.974       .  S
Fe966       O969   2.056       .  S
Fe966       O973   2.090       .  S
Fe966       O977   2.070       .  S
Fe966       O982   2.089       .  S
Fe966       O976   1.976       .  S
Fe967       O985   2.071       .  S
Fe967       O972   2.039       .  S
Fe967       O979   2.063       .  S
Fe967       O976   1.984       .  S
O968        C975   1.268       .  A
O969        C983   1.266       .  A
O970        C975   1.271       .  A
O971        C974   1.268       .  A
O972        C984   1.266       .  A
O973        C986   1.278       .  A
C974        O979   1.267       .  A
C974       C1050   1.467       .  S
C975       C1120   1.465       .  S
O977        C980   1.266       .  A
O978        C980   1.266       .  A
C980       C1033   1.493       .  S
O981        C986   1.278       .  A
O982        C984   1.275       .  A
C983        O985   1.266       .  A
C983       C1133   1.472       .  S
C984       C1060   1.463       .  S
C986       C1010   1.501       .  S
Fe987      O1003   2.089       .  S
Fe987       O993   2.056       .  S
Fe987      O1000   2.058       .  S
Fe987       O992   2.089       .  S
Fe987       O998   1.955       .  S
Fe988       O991   2.055       .  S
Fe988       O995   2.106       .  S
Fe988      O1415   2.070   1_545  S
Fe988      O1420   2.108   1_545  S
Fe988       O998   1.955       .  S
Fe989      O1007   2.055       .  S
Fe989      O1410   2.037   1_545  S
Fe989      O1001   2.058       .  S
Fe989       O990   2.056       .  S
Fe989       O998   1.960       .  S
O990        C997   1.272       .  A
O991       C1005   1.265       .  A
O992        C997   1.278       .  A
O993        C996   1.265       .  A
O994      Fe1405   2.034       .  S
O994       C1006   1.271       .  A
O995       C1008   1.288       .  A
C996       O1001   1.263       .  A
C996       C1113   1.472       .  S
C997       C1083   1.480       .  S
O999      Fe1404   2.071       .  S
O999       C1418   1.263       .  A
O1000      C1002   1.261       .  A
C1002      O1415   1.263   1_545  A
C1002      C1020   1.491       .  S
O1003      C1008   1.285       .  A
O1004     Fe1404   2.116       .  S
O1004      C1006   1.284       .  A
C1005      O1007   1.261       .  A
C1005      C1489   1.472       .  S
C1006      C1103   1.489       .  S
C1008      C1013   1.500       .  S
C1009      C1010   1.409       .  A
C1009      C1014   1.406       .  A
C1009      H1015   1.083       .  S
C1010      C1011   1.409       .  A
C1011      C1012   1.405       .  A
C1011      H1016   1.083       .  S
C1012      C1013   1.409       .  A
C1012      H1017   1.083       .  S
C1013      C1014   1.409       .  A
C1014      H1018   1.083       .  S
C1019      C1020   1.408       .  A
C1019      C1024   1.400   1_554  A
C1019      H1025   1.083       .  S
C1020      C1437   1.407   1_545  A
C1021      C1436   1.407       .  A
C1021      C1022   1.403   1_554  A
C1021      H1026   1.083       .  S
C1022      C1023   1.408       .  A
C1022      H1027   1.083       .  S
C1023      C1440   1.408       .  A
C1024      C1439   1.406   1_545  A
C1024      H1028   1.083       .  S
C1029      C1034   1.402   1_556  A
C1029      H1035   1.083       .  S
C1030      C1031   1.408       .  A
C1031      C1032   1.403   1_556  A
C1031      H1036   1.083       .  S
C1032      H1037   1.083       .  S
C1033      C1034   1.408       .  A
C1034      H1038   1.083       .  S
C1039      C1040   1.409       .  A
C1039      C1044   1.405       .  A
C1039      H1045   1.083       .  S
C1040      C1041   1.410       .  A
C1041      C1042   1.407       .  A
C1041      H1046   1.083       .  S
C1042      C1043   1.410       .  A
C1042      H1047   1.083       .  S
C1043      C1044   1.409       .  A
C1044      H1048   1.083       .  S
C1049      C1050   1.395       .  A
C1049      C1054   1.387       .  A
C1049      H1055   1.084       .  S
C1051      C1052   1.399       .  A
C1051      H1056   1.083       .  S
C1052      C1053   1.401       .  A
C1052      H1057   1.083       .  S
C1054      H1058   1.081       .  S
C1059      C1060   1.398       .  A
C1059      C1064   1.394       .  A
C1059      H1065   1.083       .  S
C1060      C1061   1.407       .  A
C1061      C1062   1.401       .  A
C1061      H1066   1.084       .  S
C1062      C1063   1.401       .  A
C1062      H1067   1.083       .  S
C1063      C1064   1.406       .  A
C1064      H1068   1.084       .  S
C1069      C1070   1.403       .  A
C1069      C1074   1.405       .  A
C1069      H1075   1.082       .  S
C1070      C1071   1.407       .  A
C1071      C1072   1.383       .  A
C1071      H1076   1.083       .  S
C1072      C1073   1.396       .  A
C1072      H1077   1.084       .  S
C1073      C1421   1.467       .  S
C1073      C1074   1.409       .  A
C1074      H1078   1.083       .  S
C1079      C1080   1.398       .  A
C1079      C1084   1.385       .  A
C1079      H1085   1.084       .  S
C1080      C1333   1.476       .  S
C1080      C1497   1.411   1_565  A
C1081      C1496   1.409       .  A
C1081      C1082   1.406       .  A
C1081      H1086   1.083       .  S
C1082      C1499   1.403       .  A
C1082      H1087   1.082       .  S
C1083      C1498   1.405       .  A
C1083      C1084   1.407   1_545  A
C1084      H1088   1.082       .  S
C1089      C1090   1.409       .  A
C1089      C1094   1.408       .  A
C1089      H1095   1.083       .  S
C1090      C1091   1.410       .  A
C1091      C1092   1.404       .  A
C1091      H1096   1.083       .  S
C1092      C1093   1.408       .  A
C1092      H1097   1.083       .  S
C1093      C1094   1.411       .  A
C1094      H1098   1.083       .  S
C1099      C1100   1.408       .  A
C1099      C1104   1.409       .  A
C1099      H1105   1.083       .  S
C1100      C1101   1.397       .  A
C1101      C1102   1.388       .  A
C1101      H1106   1.084       .  S
C1102      C1103   1.411       .  A
C1102      H1107   1.082       .  S
C1103      C1104   1.407       .  A
C1104      H1108   1.082       .  S
C1109      C1110   1.405       .  A
C1109      C1114   1.403       .  A
C1109      H1115   1.083       .  S
C1110      C1111   1.397       .  A
C1111      C1112   1.387       .  A
C1111      H1116   1.084       .  S
C1112      C1113   1.405       .  A
C1112      H1117   1.084       .  S
C1113      C1114   1.405       .  A
C1114      H1118   1.083       .  S
C1119      C1120   1.398       .  A
C1119      C1124   1.389       .  A
C1119      H1125   1.084       .  S
C1120      C1121   1.407       .  A
C1121      C1122   1.407       .  A
C1121      H1126   1.083       .  S
C1122      C1123   1.406       .  A
C1122      H1127   1.083       .  S
C1123      C1124   1.406       .  A
C1124      H1128   1.084       .  S
C1129      C1130   1.410       .  A
C1129      C1134   1.392       .  A
C1129      H1135   1.084       .  S
C1130      C1131   1.405       .  A
C1131      C1132   1.407       .  A
C1131      H1136   1.083       .  S
C1132      C1133   1.408       .  A
C1132      H1137   1.083       .  S
C1133      C1134   1.397       .  A
C1134      H1138   1.084       .  S
C1139      C1140   1.407       .  A
C1139      C1144   1.403       .  A
C1139      H1145   1.083       .  S
C1140      C1141   1.408       .  A
C1141      C1142   1.403       .  A
C1141      H1146   1.083       .  S
C1142      C1143   1.407       .  A
C1142      H1147   1.083       .  S
C1143      C1144   1.409       .  A
C1144      H1148   1.083       .  S
C1149      C1150   1.406       .  A
C1149      C1154   1.393       .  A
C1149      H1155   1.083       .  S
C1150      C1151   1.405       .  A
C1151      C1152   1.406       .  A
C1151      H1156   1.083       .  S
C1152      C1153   1.407       .  A
C1152      H1157   1.083       .  S
C1153      C1154   1.399       .  A
C1154      H1158   1.084       .  S
C1159      C1160   1.397       .  A
C1159      C1164   1.391       .  A
C1159      H1165   1.084       .  S
C1160      C1161   1.408       .  A
C1161      C1162   1.407       .  A
C1161      H1166   1.083       .  S
C1162      C1163   1.405       .  A
C1162      H1167   1.083       .  S
C1163      C1164   1.409       .  A
C1164      H1168   1.084       .  S
C1169      C1170   1.409       .  A
C1169      C1174   1.408       .  A
C1169      H1175   1.083       .  S
C1170      C1171   1.398       .  A
C1171      C1172   1.387       .  A
C1171      H1176   1.084       .  S
C1172      C1173   1.408       .  A
C1172      H1177   1.083       .  S
C1173      C1174   1.406       .  A
C1174      H1178   1.082       .  S
C1179      C1180   1.397       .  A
C1179      C1184   1.388       .  A
C1179      H1185   1.084       .  S
C1180      C1181   1.405       .  A
C1181      C1182   1.403       .  A
C1181      H1186   1.083       .  S
C1182      C1183   1.405       .  A
C1182      H1187   1.083       .  S
C1183      C1184   1.405       .  A
C1184      H1188   1.083       .  S
C1189      C1190   1.407   1_565  A
C1189      C1194   1.403       .  A
C1189      H1195   1.083       .  S
C1191      C1192   1.401       .  A
C1191      H1196   1.083       .  S
C1192      C1193   1.407       .  A
C1192      H1197   1.083       .  S
C1194      H1198   1.083       .  S
C1199      C1200   1.409       .  A
C1199      C1204   1.408       .  A
C1199      H1205   1.083       .  S
C1200      C1201   1.408       .  A
C1201      C1202   1.401       .  A
C1201      H1206   1.083       .  S
C1202      C1203   1.408       .  A
C1202      H1207   1.083       .  S
C1203      C1204   1.409       .  A
C1204      H1208   1.083       .  S
C1209      C1210   1.396       .  A
C1209      C1630   1.386       .  A
C1209      H1215   1.084       .  S
C1210      C1627   1.409   1_545  A
C1211      C1626   1.411       .  A
C1211      C1212   1.410       .  A
C1211      H1216   1.083       .  S
C1212      C1213   1.406       .  A
C1212      H1217   1.082       .  S
C1213      C1214   1.409       .  A
C1214      C1625   1.385       .  A
C1214      H1218   1.083       .  S
C1219      C1220   1.398       .  A
C1219      C1224   1.388       .  A
C1219      H1225   1.084       .  S
C1220      C1637   1.405   1_545  A
C1221      C1636   1.405       .  A
C1221      C1222   1.407       .  A
C1221      H1226   1.083       .  S
C1222      C1223   1.408       .  A
C1222      H1227   1.083       .  S
C1223      C1640   1.404       .  A
C1224      C1639   1.404   1_545  A
C1224      H1228   1.084       .  S
C1229      C1234   1.396       .  A
C1229      H1235   1.083       .  S
C1230      C1231   1.402       .  A
C1231      H1236   1.083       .  S
C1232      C1233   1.406   1_455  A
C1232      H1237   1.083       .  S
C1233      C1234   1.399       .  A
C1234      H1238   1.084       .  S
C1239      C1244   1.391       .  A
C1239      H1245   1.084       .  S
C1240      C1241   1.407       .  A
C1241      C1242   1.406       .  A
C1241      H1246   1.083       .  S
C1242      C1243   1.405       .  A
C1242      H1247   1.083       .  S
C1244      H1248   1.084       .  S
Fe1249     O1265   2.108       .  S
Fe1249     O1255   2.050       .  S
Fe1249     O1262   2.072       .  S
Fe1249     O1260   1.955       .  S
Fe1250     O1253   2.070       .  S
Fe1250     O1257   2.073       .  S
Fe1250     O1260   1.956       .  S
Fe1251     O1269   2.061       .  S
Fe1251     O1263   2.067       .  S
Fe1251     O1260   1.964       .  S
O1252      C1259   1.270       .  A
O1253      C1267   1.268       .  A
O1254      C1259   1.282       .  A
O1255      C1258   1.265       .  A
O1256      C1268   1.271       .  A
O1257      C1270   1.281       .  A
C1258      O1263   1.264       .  A
C1258      C1626   1.478       .  S
C1259      C1659   1.485       .  S
O1262      C1264   1.264       .  A
C1264      C1606   1.496       .  S
O1265      C1270   1.286       .  A
O1266      C1268   1.274       .  A
C1267      O1269   1.264       .  A
C1267      C1646   1.475       .  S
C1268      C1636   1.464       .  S
C1270      C1616   1.496       .  S
Fe1271     O1287   2.074       .  S
Fe1271     O1277   2.079       .  S
Fe1271     O1284   2.069       .  S
Fe1271     O1276   2.073       .  S
Fe1271     O1282   1.956       .  S
Fe1272     O1275   2.050       .  S
Fe1272     O1279   2.109       .  S
Fe1272     O1283   2.068       .  S
Fe1272     O1288   2.111       .  S
Fe1272     O1282   1.953       .  S
Fe1273     O1291   2.053       .  S
Fe1273     O1278   2.033       .  S
Fe1273     O1285   2.055       .  S
Fe1273     O1274   2.056       .  S
Fe1273     O1282   1.959       .  S
O1274      C1281   1.270       .  A
O1275      C1289   1.264       .  A
O1276      C1281   1.273       .  A
O1277      C1280   1.268       .  A
O1278      C1290   1.269       .  A
O1279      C1292   1.286       .  A
C1280      O1285   1.263       .  A
C1280      C1566   1.468       .  S
C1281      C1596   1.459       .  S
O1283      C1286   1.264       .  A
O1284      C1286   1.264       .  A
C1286      C1556   1.493       .  S
O1287      C1292   1.281       .  A
O1288      C1290   1.281       .  A
C1289      O1291   1.261       .  A
C1289      C1586   1.464       .  S
C1290      C1579   1.484       .  S
C1292      C1619   1.496       .  S
Fe1293     O1309   2.117       .  S
Fe1293     O1299   2.047       .  S
Fe1293     O1306   2.069       .  S
Fe1293     O1298   2.108       .  S
Fe1293     O1304   1.950       .  S
Fe1294     O1297   2.079       .  S
Fe1294     O1301   2.069       .  S
Fe1294     O1305   2.076       .  S
Fe1294     O1310   2.063       .  S
Fe1294     O1304   1.958       .  S
Fe1295     O1313   2.068       .  S
Fe1295     O1300   2.058       .  S
Fe1295     O1307   2.077       .  S
Fe1295     O1296   2.044       .  S
Fe1295     O1304   1.960       .  S
O1296      C1303   1.268       .  A
O1297      C1311   1.270       .  A
O1298      C1303   1.280       .  A
O1299      C1302   1.266       .  A
O1300      C1312   1.270       .  A
O1301      C1314   1.277       .  A
C1302      O1307   1.267       .  A
C1302      C1516   1.476       .  S
C1303      C1546   1.471       .  S
O1305      C1308   1.266       .  A
O1306      C1308   1.265       .  A
C1308      C1559   1.493       .  S
O1309      C1314   1.285       .  A
O1310      C1312   1.270       .  A
C1311      O1313   1.268       .  A
C1311      C1539   1.475       .  S
C1312      C1526   1.453       .  S
C1314      C1506   1.501       .  S
Fe1315     O1331   2.083       .  S
Fe1315     O1328   2.081       .  S
Fe1315     O1326   1.950       .  S
Fe1316     O1319   2.050       .  S
Fe1316     O1323   2.108       .  S
Fe1316     O1326   1.940       .  S
Fe1317     O1335   2.066       .  S
Fe1317     O1329   2.061       .  S
Fe1317     O1326   1.956       .  S
O1318      C1325   1.268       .  A
O1319      C1333   1.265       .  A
O1320      C1325   1.278       .  A
O1322      C1334   1.273       .  A
O1323      C1336   1.286       .  A
C1324      O1329   1.269       .  A
C1325      C1486   1.480       .  S
O1328      C1330   1.267       .  A
C1330      C1609   1.498       .  S
O1331      C1336   1.283       .  A
O1332      C1334   1.283       .  A
C1333      O1335   1.263       .  A
C1334      C1469   1.485       .  S
C1336      C1509   1.501       .  S
Fe1337     O1353   2.099       .  S
Fe1337     O1343   2.050       .  S
Fe1337     O1350   2.069       .  S
Fe1337     O1342   2.100       .  S
Fe1337     O1348   1.964       .  S
Fe1338     O1349   2.068       .  S
Fe1338     O1354   2.102       .  S
Fe1339     O1357   2.060       .  S
Fe1339     O1351   2.078       .  S
Fe1339     O1340   2.034       .  S
Fe1339     O1348   1.970       .  S
O1340      C1347   1.266       .  A
O1341      C1355   1.271   1_455  A
O1342      C1347   1.278       .  A
O1343      C1346   1.265       .  A
O1344      C1356   1.267       .  A
O1345      C1358   1.277       .  A
C1346      O1351   1.267       .  A
C1346      C1576   1.472       .  S
C1347      C1649   1.466       .  S
O1350      C1352   1.266       .  A
C1352      C1446   1.494       .  S
O1353      C1358   1.281       .  A
O1354      C1356   1.279       .  A
C1355      O1357   1.268       .  A
C1356      C1569   1.465       .  S
C1358      C1456   1.498       .  S
Fe1359     O1375   2.098       .  S
Fe1359     O1365   2.057       .  S
Fe1359     O1372   2.064       .  S
Fe1359     O1370   1.950       .  S
Fe1360     O1363   2.044       .  S
Fe1360     O1367   2.103       .  S
Fe1360     O1371   2.056       .  S
Fe1360     O1376   2.094       .  S
Fe1360     O1370   1.949       .  S
Fe1361     O1379   2.060       .  S
Fe1361     O1366   2.049       .  S
Fe1361     O1373   2.056       .  S
Fe1361     O1370   1.955       .  S
O1362      C1369   1.274       .  A
O1363      C1377   1.262       .  A
O1364      C1369   1.282       .  A
O1365      C1368   1.264       .  A
O1366      C1378   1.273       .  A
O1367      C1380   1.290       .  A
C1368      O1373   1.260       .  A
C1368      C1639   1.473       .  S
C1369      C1589   1.477       .  S
O1371      C1374   1.258       .  A
O1372      C1374   1.260       .  A
C1374      C1439   1.491       .  S
O1375      C1380   1.289       .  A
O1376      C1378   1.281       .  A
C1377      O1379   1.261       .  A
C1377      C1599   1.473       .  S
C1378      C1629   1.482       .  S
C1380      C1459   1.499       .  S
Fe1381     O1397   2.114       .  S
Fe1381     O1387   2.046       .  S
Fe1381     O1394   2.068       .  S
Fe1381     O1392   1.953       .  S
Fe1382     O1385   2.078       .  S
Fe1382     O1389   2.073       .  S
Fe1382     O1393   2.070       .  S
Fe1382     O1398   2.072       .  S
Fe1382     O1392   1.955       .  S
Fe1383     O1401   2.072       .  S
Fe1383     O1388   2.065       .  S
Fe1383     O1395   2.083       .  S
Fe1383     O1392   1.961       .  S
O1384      C1391   1.266       .  A
O1385      C1399   1.270       .  A
O1386      C1391   1.273       .  A
O1387      C1390   1.265       .  A
O1388      C1400   1.270       .  A
O1389      C1402   1.280       .  A
C1390      O1395   1.268       .  A
C1390      C1466   1.476       .  S
C1391      C1536   1.466       .  S
O1393      C1396   1.265       .  A
O1394      C1396   1.265       .  A
C1396      C1449   1.491       .  S
O1397      C1402   1.285       .  A
O1398      C1400   1.271       .  A
C1399      O1401   1.269       .  A
C1399      C1549   1.478       .  S
C1400      C1476   1.460       .  S
C1402      C1426   1.501       .  S
Fe1403     O1419   2.080       .  S
Fe1403     O1409   2.068       .  S
Fe1403     O1416   2.068       .  S
Fe1403     O1408   2.085       .  S
Fe1403     O1414   1.950       .  S
Fe1404     O1407   2.047       .  S
Fe1404     O1411   2.119       .  S
Fe1404     O1414   1.945       .  S
Fe1405     O1423   2.049       .  S
Fe1405     O1417   2.049       .  S
Fe1405     O1406   2.054       .  S
Fe1405     O1414   1.958       .  S
O1406      C1413   1.269       .  A
O1407      C1421   1.264       .  A
O1408      C1413   1.277       .  A
O1409      C1412   1.268       .  A
O1410      C1422   1.270       .  A
O1411      C1424   1.290       .  A
C1412      O1417   1.262       .  A
C1412      C1529   1.468       .  S
C1413      C1499   1.475       .  S
O1416      C1418   1.262       .  A
C1418      C1436   1.495       .  S
O1419      C1424   1.285       .  A
O1420      C1422   1.281       .  A
C1421      O1423   1.259       .  A
C1422      C1519   1.487       .  S
C1424      C1429   1.502       .  S
C1425      C1426   1.408       .  A
C1425      C1430   1.401       .  A
C1425      H1431   1.083       .  S
C1426      C1427   1.411       .  A
C1427      C1428   1.410       .  A
C1427      H1432   1.083       .  S
C1428      C1429   1.411       .  A
C1428      H1433   1.083       .  S
C1429      C1430   1.409       .  A
C1430      H1434   1.083       .  S
C1435      C1436   1.409       .  A
C1435      C1440   1.404   1_554  A
C1435      H1441   1.083       .  S
C1437      C1438   1.402   1_554  A
C1437      H1442   1.083       .  S
C1438      C1439   1.409       .  A
C1438      H1443   1.083       .  S
C1440      H1444   1.083       .  S
C1445      C1450   1.401   1_556  A
C1445      H1451   1.083       .  S
C1446      C1447   1.408       .  A
C1447      C1448   1.404   1_556  A
C1447      H1452   1.083       .  S
C1448      H1453   1.083       .  S
C1449      C1450   1.408       .  A
C1450      H1454   1.083       .  S
C1455      C1456   1.409       .  A
C1455      C1460   1.405       .  A
C1455      H1461   1.083       .  S
C1456      C1457   1.408       .  A
C1457      C1458   1.404       .  A
C1457      H1462   1.083       .  S
C1458      C1459   1.409       .  A
C1458      H1463   1.083       .  S
C1459      C1460   1.409       .  A
C1460      H1464   1.083       .  S
C1465      C1466   1.397       .  A
C1465      C1470   1.389       .  A
C1465      H1471   1.084       .  S
C1467      C1468   1.407       .  A
C1467      H1472   1.083       .  S
C1468      C1469   1.405       .  A
C1468      H1473   1.083       .  S
C1470      H1474   1.081       .  S
C1475      C1476   1.397       .  A
C1475      C1480   1.389       .  A
C1475      H1481   1.084       .  S
C1476      C1477   1.406       .  A
C1477      C1478   1.404       .  A
C1477      H1482   1.083       .  S
C1478      C1479   1.405       .  A
C1478      H1483   1.083       .  S
C1479      C1480   1.406       .  A
C1480      H1484   1.083       .  S
C1485      C1486   1.404       .  A
C1485      C1490   1.407       .  A
C1485      H1491   1.082       .  S
C1486      C1487   1.409   1_565  A
C1487      C1488   1.386       .  A
C1487      H1492   1.083       .  S
C1488      C1489   1.396       .  A
C1488      H1493   1.084       .  S
C1489      C1490   1.410   1_545  A
C1490      H1494   1.083       .  S
C1495      C1496   1.397       .  A
C1495      C1500   1.384       .  A
C1495      H1501   1.084       .  S
C1497      C1498   1.409       .  A
C1497      H1502   1.083       .  S
C1498      H1503   1.083       .  S
C1499      C1500   1.407       .  A
C1500      H1504   1.083       .  S
C1505      C1506   1.409       .  A
C1505      C1510   1.408       .  A
C1505      H1511   1.083       .  S
C1506      C1507   1.410       .  A
C1507      C1508   1.403       .  A
C1507      H1512   1.083       .  S
C1508      C1509   1.408       .  A
C1508      H1513   1.083       .  S
C1509      C1510   1.411       .  A
C1510      H1514   1.083       .  S
C1515      C1516   1.410       .  A
C1515      C1520   1.410       .  A
C1515      H1521   1.083       .  S
C1516      C1517   1.397       .  A
C1517      C1518   1.386       .  A
C1517      H1522   1.084       .  S
C1518      C1519   1.409       .  A
C1518      H1523   1.081       .  S
C1519      C1520   1.407       .  A
C1520      H1524   1.082       .  S
C1525      C1526   1.404       .  A
C1525      C1530   1.402       .  A
C1525      H1531   1.083       .  S
C1526      C1527   1.396       .  A
C1527      C1528   1.386       .  A
C1527      H1532   1.083       .  S
C1528      C1529   1.404       .  A
C1528      H1533   1.084       .  S
C1529      C1530   1.404       .  A
C1530      H1534   1.083       .  S
C1535      C1536   1.399       .  A
C1535      C1540   1.396       .  A
C1535      H1541   1.084       .  S
C1536      C1537   1.407       .  A
C1537      C1538   1.403       .  A
C1537      H1542   1.083       .  S
C1538      C1539   1.402       .  A
C1538      H1543   1.083       .  S
C1539      C1540   1.406       .  A
C1540      H1544   1.083       .  S
C1545      C1546   1.408       .  A
C1545      C1550   1.405       .  A
C1545      H1551   1.083       .  S
C1546      C1547   1.399       .  A
C1547      C1548   1.397       .  A
C1547      H1552   1.084       .  S
C1548      C1549   1.407       .  A
C1548      H1553   1.084       .  S
C1549      C1550   1.403       .  A
C1550      H1554   1.083       .  S
C1555      C1556   1.407       .  A
C1555      C1560   1.403       .  A
C1555      H1561   1.083       .  S
C1556      C1557   1.408       .  A
C1557      C1558   1.402       .  A
C1557      H1562   1.083       .  S
C1558      C1559   1.407       .  A
C1558      H1563   1.083       .  S
C1559      C1560   1.408       .  A
C1560      H1564   1.083       .  S
C1565      C1566   1.405       .  A
C1565      C1570   1.396       .  A
C1565      H1571   1.083       .  S
C1566      C1567   1.400       .  A
C1567      C1568   1.399       .  A
C1567      H1572   1.083       .  S
C1568      C1569   1.407       .  A
C1568      H1573   1.084       .  S
C1569      C1570   1.399       .  A
C1570      H1574   1.083       .  S
C1575      C1576   1.397       .  A
C1575      C1580   1.390       .  A
C1575      H1581   1.084       .  S
C1576      C1577   1.408       .  A
C1577      C1578   1.408       .  A
C1577      H1582   1.083       .  S
C1578      C1579   1.406       .  A
C1578      H1583   1.083       .  S
C1579      C1580   1.410       .  A
C1580      H1584   1.084       .  S
C1585      C1586   1.406       .  A
C1585      C1590   1.403       .  A
C1585      H1591   1.083       .  S
C1586      C1587   1.396       .  A
C1587      C1588   1.387       .  A
C1587      H1592   1.084       .  S
C1588      C1589   1.409       .  A
C1588      H1593   1.082       .  S
C1589      C1590   1.404       .  A
C1590      H1594   1.083       .  S
C1595      C1596   1.397       .  A
C1595      C1600   1.384       .  A
C1595      H1601   1.084       .  S
C1596      C1597   1.405       .  A
C1597      C1598   1.405       .  A
C1597      H1602   1.083       .  S
C1598      C1599   1.406       .  A
C1598      H1603   1.083       .  S
C1599      C1600   1.404       .  A
C1600      H1604   1.083       .  S
C1605      C1606   1.408       .  A
C1605      C1610   1.404       .  A
C1605      H1611   1.083       .  S
C1607      C1608   1.404       .  A
C1607      H1612   1.083       .  S
C1608      C1609   1.409   1_545  A
C1608      H1613   1.083       .  S
C1610      H1614   1.083       .  S
C1615      C1616   1.409       .  A
C1615      C1620   1.406       .  A
C1615      H1621   1.083       .  S
C1616      C1617   1.408       .  A
C1617      C1618   1.401       .  A
C1617      H1622   1.083       .  S
C1618      C1619   1.408       .  A
C1618      H1623   1.083       .  S
C1619      C1620   1.409       .  A
C1620      H1624   1.083       .  S
C1625      C1626   1.398       .  A
C1625      H1631   1.084       .  S
C1627      C1628   1.407       .  A
C1627      H1632   1.083       .  S
C1628      C1629   1.405       .  A
C1628      H1633   1.082       .  S
C1629      C1630   1.410   1_565  A
C1630      H1634   1.083       .  S
C1635      C1636   1.398       .  A
C1635      C1640   1.386       .  A
C1635      H1641   1.083       .  S
C1637      C1638   1.404       .  A
C1637      H1642   1.083       .  S
C1638      C1639   1.406       .  A
C1638      H1643   1.083       .  S
C1640      H1644   1.084       .  S
C1645      C1650   1.397       .  A
C1645      H1651   1.083       .  S
C1646      C1647   1.404       .  A
C1647      H1652   1.083       .  S
C1648      C1649   1.407   1_455  A
C1648      H1653   1.084       .  S
C1649      C1650   1.399       .  A
C1650      H1654   1.084       .  S
C1655      C1660   1.393       .  A
C1655      H1661   1.083       .  S
C1656      C1657   1.409       .  A
C1657      C1658   1.408       .  A
C1657      H1662   1.083       .  S
C1658      C1659   1.406       .  A
C1658      H1663   1.083       .  S
C1660      H1664   1.084       .  S
