geometry optimzed in LAMMPS
_audit_creation_date              2020-11-30 
_audit_creation_method            'lammps2cif' 
_symmetry_space_group_name_H-M    'P1' 
_symmetry_Int_Tables_number       1 
_symmetry_cell_setting            triclinic 
loop_ 
_symmetry_equiv_pos_as_xyz 
  x,y,z 
_cell_length_a                    38.152997199512185 
_cell_length_b                    38.270620287384304 
_cell_length_c                    40.84637952838385 
_cell_angle_alpha                 90.17607440053241 
_cell_angle_beta                  89.91461121587952 
_cell_angle_gamma                 121.61193811472 
loop_ 
_atom_site_label 
_atom_site_type_symbol 
_atom_site_fract_x 
_atom_site_fract_y 
_atom_site_fract_z 
_atom_site_charge 
In1        In  0.07716520  0.42839228  0.45713680     1.36870
C2          C  0.05009979  0.47949312  0.45372356     0.77310
O3          O  0.08314014  0.43129313  0.40277065    -0.61140
O4          O  0.03419187  0.37633735  0.42411535    -0.52050
C5          C  0.14652220  0.43142218  0.46995110     0.69970
O6          O  0.14639096  0.46352611  0.46267339    -0.46910
C7          C  0.05371069  0.40692169  0.01814986     0.74680
O8          O  0.08777497  0.49151830  0.44985259    -0.58770
O9          O  0.03766748  0.38150708  0.49468060    -0.48860
O10         O  0.02709627  0.44161707  0.45932147    -0.55200
C11         C  0.05094481  0.39659683  0.39838141     0.84860
O12         O  0.11239303  0.39831137  0.46659096    -0.57090
O13         O  0.08048532  0.44291377  0.00961874    -0.60380
In14       In  0.96086019  0.64009046  0.45688378     1.36870
C15         C  0.98310524  0.58491823  0.45420271     0.77310
O16         O  0.95350610  0.63747783  0.40230835    -0.61140
O17         O  0.00631293  0.68924255  0.42354262    -0.52050
C18         C  0.89159978  0.63909579  0.46550679     0.69970
O19         O  0.89189903  0.60630826  0.46238794    -0.46910
C20         C  0.98958008  0.66799235  0.01620439     0.74680
O21         O  0.94561356  0.57437331  0.45455704    -0.58770
O22         O  0.00643171  0.68918442  0.49088879    -0.48860
O23         O  0.00812780  0.62303899  0.45516358    -0.55200
C24         C  0.98768562  0.67029879  0.39779304     0.84860
O25         O  0.92603782  0.67149087  0.46085114    -0.57090
O26         O  0.95774968  0.63336985  0.01111341    -0.60380
In27       In  0.96188492  0.36051291  0.20710646     1.36870
C28         C  0.98713678  0.43960772  0.21009198     0.77310
O29         O  0.95218474  0.36032069  0.26078291    -0.61140
O30         O  0.99846470  0.34934806  0.24433569    -0.52050
C31         C  0.89122992  0.29303746  0.19161898     0.69970
O32         O  0.89474328  0.32766140  0.19442289    -0.46910
C33         C  0.99524849  0.36571761  0.14982078     0.74680
O34         O  0.94947639  0.41166456  0.21187520    -0.58770
O35         O  0.00976680  0.35967664  0.17556347    -0.48860
O36         O  0.01110311  0.42645444  0.20684390    -0.55200
C37         C  0.98159824  0.35572443  0.26837988     0.84860
O38         O  0.92288920  0.29267614  0.19995295    -0.57090
O39         O  0.96395494  0.36831367  0.15364523    -0.60380
In40       In  0.07903848  0.69410096  0.20717103     1.36870
C41         C  0.05369480  0.61528898  0.21116370     0.77310
O42         O  0.08972638  0.69975418  0.26087577    -0.61140
O43         O  0.03759345  0.69995085  0.24307997    -0.52050
C44         C  0.14912437  0.76265688  0.19347381     0.69970
O45         O  0.14658755  0.72841307  0.19560331    -0.46910
C46         C  0.05217086  0.69088632  0.14724398     0.74680
O47         O  0.09134649  0.64324425  0.21350001    -0.58770
O48         O  0.03802674  0.70063200  0.17140912    -0.48860
O49         O  0.02966292  0.62830534  0.20736779    -0.55200
C50         C  0.05740371  0.69962032  0.26782926     0.84860
O51         O  0.11688746  0.76210978  0.20154947    -0.57090
O52         O  0.07862109  0.68204656  0.15457511    -0.60380
In53       In  0.41698271  0.09457507  0.36672469     1.36870
C54         C  0.46798008  0.06742254  0.37096950     0.77310
O55         O  0.42281120  0.10489176  0.42029375    -0.61140
O56         O  0.36705857  0.05371470  0.40237016    -0.52050
C57         C  0.41968206  0.16361286  0.35324926     0.69970
O58         O  0.45193753  0.16296026  0.35910039    -0.46910
C59         C  0.39671908  0.06847168  0.30630812     0.74680
O60         O  0.48051033  0.10534026  0.37242175    -0.58770
O61         O  0.37013137  0.05381932  0.32908947    -0.48860
O62         O  0.42948654  0.04418379  0.36793068    -0.55200
C63         C  0.38885988  0.07285469  0.42708688     0.84860
O64         O  0.38657639  0.12962599  0.35768696    -0.57090
O65         O  0.43230580  0.09635012  0.31493794    -0.60380
In66       In  0.62160807  0.96929971  0.36593070     1.36870
C67         C  0.57036885  0.99620004  0.37108619     0.77310
O68         O  0.61536935  0.95791012  0.41963959    -0.61140
O69         O  0.67177765  0.00787062  0.40176709    -0.52050
C70         C  0.61812250  0.90024769  0.35029638     0.69970
O71         O  0.58594443  0.90130981  0.35537052    -0.46910
C72         C  0.64641175  0.00157255  0.30781470     0.74680
O73         O  0.55777043  0.95823870  0.37100945    -0.58770
O74         O  0.67149712  0.01262812  0.33148001    -0.48860
O75         O  0.60897198  0.01947341  0.36939318    -0.55200
C76         C  0.65032634  0.98875254  0.42647956     0.84860
O77         O  0.65124360  0.93371755  0.35594764    -0.57090
O78         O  0.60990208  0.97363394  0.31399797    -0.60380
In79       In  0.35042952  0.97718812  0.11486771     1.36870
C80         C  0.42859488  0.99920737  0.10853660     0.77310
O81         O  0.33805469  0.96762169  0.06085385    -0.61140
O82         O  0.34799220  0.02285368  0.08249930    -0.52050
C83         C  0.28391123  0.90627739  0.13120869     0.69970
O84         O  0.31520414  0.90823515  0.11861122    -0.46910
C85         C  0.36095603  0.00928075  0.17370379     0.74680
O86         O  0.40008386  0.96216702  0.11258458    -0.58770
O87         O  0.34188934  0.01609161  0.15175523    -0.48860
O88         O  0.41665655  0.02418555  0.10633548    -0.55200
C89         C  0.34387411  0.00295125  0.05661989     0.84860
O90         O  0.28547015  0.94002219  0.13221415    -0.57090
O91         O  0.37398278  0.98644739  0.16521446    -0.60380
In92       In  0.68173495  0.08420737  0.11466565     1.36870
C93         C  0.60316717  0.06114679  0.10943633     0.77310
O94         O  0.69276369  0.08974328  0.06054522    -0.61140
O95         O  0.68096062  0.03509366  0.08428919    -0.52050
C96         C  0.75024002  0.15428691  0.12878510     0.69970
O97         O  0.71735422  0.15280067  0.12106531    -0.46910
C98         C  0.67702646  0.05981225  0.17541976     0.74680
O99         O  0.63185994  0.09736081  0.10263886    -0.58770
O100        O  0.68983282  0.04675114  0.15263589    -0.48860
O101        O  0.61518725  0.03767763  0.11840312    -0.55200
C102        C  0.68577237  0.05379120  0.05768762     0.84860
O103        O  0.74878309  0.12073093  0.12547806    -0.57090
O104        O  0.66693668  0.08491877  0.16656861    -0.60380
In105      In  0.63300988  0.70039858  0.28208679     1.36870
C106        C  0.57982107  0.62005479  0.27767831     0.77310
O107        O  0.63406379  0.70937571  0.22817403    -0.61140
O108        O  0.68416115  0.70812312  0.24966855    -0.52050
C109        C  0.62839298  0.76565781  0.29491718     0.69970
O110        O  0.59663354  0.73101719  0.28863360    -0.46910
C111        C  0.65399931  0.69957346  0.34331315     0.74680
O112        O  0.56897742  0.64598003  0.27401201    -0.58770
O113        O  0.68033211  0.71198038  0.32044013    -0.48860
O114        O  0.61775511  0.63590016  0.28279186    -0.55200
C115        C  0.66702183  0.70977184  0.22371996     0.84860
O116        O  0.66190084  0.76713302  0.29065786    -0.57090
O117        O  0.61788643  0.68766230  0.33412874    -0.60380
In118      In  0.40629975  0.36415922  0.28443724     1.36870
C119        C  0.46071604  0.44429750  0.28022416     0.77310
O120        O  0.40722830  0.35579413  0.23019316    -0.61140
O121        O  0.35658865  0.35696586  0.25031787    -0.52050
C122        C  0.41151212  0.29904805  0.29715796     0.69970
O123        O  0.44320456  0.33449334  0.29359007    -0.46910
C124        C  0.37902999  0.36088447  0.34463468     0.74680
O125        O  0.47099232  0.41788754  0.27714259    -0.58770
O126        O  0.35553339  0.35123309  0.31999172    -0.48860
O127        O  0.42295485  0.42916695  0.28564434    -0.55200
C128        C  0.37449416  0.35546090  0.22474112     0.84860
O129        O  0.37822822  0.29699972  0.29043782    -0.57090
O130        O  0.41601582  0.37360218  0.33784480    -0.60380
In131      In  0.68411389  0.64239421  0.03323714     1.36870
C132        C  0.60446341  0.58643647  0.03923583     0.77310
O133        O  0.69476746  0.64103984  0.08699097    -0.61140
O134        O  0.69345503  0.69186205  0.06813655    -0.52050
C135        C  0.74778986  0.63638725  0.01574537     0.69970
O136        O  0.71227311  0.60514028  0.01983670    -0.46910
C137        C  0.67910218  0.67098272  0.47626674     0.74680
O138        O  0.63185749  0.57726701  0.04031726    -0.58770
O139        O  0.69660393  0.69483343  0.50027509    -0.48860
O140        O  0.61849086  0.62430532  0.03616981    -0.55200
C141        C  0.69588274  0.67393807  0.09316447     0.84860
O142        O  0.75072295  0.66982933  0.02319837    -0.57090
O143        O  0.66531688  0.63360736  0.48156883    -0.60380
In144      In  0.34723825  0.41581961  0.03367303     1.36870
C145        C  0.42752758  0.47177929  0.03727311     0.77310
O146        O  0.34035517  0.41856852  0.08808381    -0.61140
O147        O  0.33818342  0.36615888  0.06849320    -0.52050
C148        C  0.28595476  0.42729852  0.02017650     0.69970
O149        O  0.32323948  0.45593542  0.01937396    -0.46910
C150        C  0.34309053  0.38206339  0.47603785     0.74680
O151        O  0.40024289  0.48033834  0.04246171    -0.58770
O152        O  0.33723272  0.36246213  0.50238083    -0.48860
O153        O  0.41331211  0.43467095  0.03023561    -0.55200
C154        C  0.33866590  0.38536120  0.09386981     0.84860
O155        O  0.27992990  0.39355373  0.03074767    -0.57090
O156        O  0.35064629  0.41803896  0.47946976    -0.60380
C157        C  0.49914574  0.48681386  0.03883228    -0.20580
C158        C  0.47257560  0.50194889  0.03918645    -0.07150
C159        C  0.48978583  0.54488898  0.04062171     0.13720
C160        C  0.53275114  0.57116515  0.04126313    -0.20630
C161        C  0.55937265  0.55606975  0.04048342    -0.07150
C162        C  0.54212409  0.51309085  0.03943786     0.13830
C163        C  0.56837415  0.49433855  0.03841527    -0.23980
H164        H  0.48620185  0.45396712  0.03787743     0.15000
H165        H  0.54562656  0.60400484  0.04202537     0.15030
C166        C  0.46349662  0.56362302  0.04078800    -0.23930
H167        H  0.54946421  0.46029185  0.03753016     0.05240
H168        H  0.58783685  0.50316185  0.06071286     0.08470
H169        H  0.58807046  0.50485180  0.01620814     0.08470
H170        H  0.44371079  0.55366228  0.06293579     0.08450
H171        H  0.44410214  0.55420402  0.01841592     0.08450
H172        H  0.48238213  0.59768383  0.04116821     0.05230
C173        C  0.33647106  0.37483068  0.18691606    -0.20580
C174        C  0.35997884  0.35660716  0.19112489    -0.07150
C175        C  0.37165487  0.34327366  0.16302725     0.13720
C176        C  0.36153115  0.35060622  0.13173224    -0.20630
C177        C  0.34109780  0.37195567  0.12752231    -0.07150
C178        C  0.32733794  0.38315314  0.15558642     0.13710
C179        C  0.30308129  0.40391417  0.15284753    -0.23980
H180        H  0.32696559  0.38463500  0.20828873     0.15000
H181        H  0.37176168  0.34159702  0.11031946     0.15030
C182        C  0.39501843  0.32156192  0.16558571    -0.23930
H183        H  0.29242111  0.40777410  0.17715439     0.05240
H184        H  0.27551169  0.38515031  0.13729454     0.08470
H185        H  0.32244212  0.43492324  0.14210171     0.08470
H186        H  0.37804491  0.29427863  0.18162541     0.08450
H187        H  0.42624430  0.34265393  0.17562502     0.08450
H188        H  0.39893304  0.31088080  0.14130707     0.05230
C189        C  0.37394082  0.35628550  0.43766172    -0.20580
C190        C  0.34398265  0.36612559  0.44349637    -0.07150
C191        C  0.32155292  0.36841115  0.41695796     0.13720
C192        C  0.33216353  0.36430355  0.38490652    -0.20630
C193        C  0.36503165  0.35860502  0.37880991    -0.07150
C194        C  0.38509029  0.35279905  0.40562125     0.13710
C195        C  0.41859121  0.34344771  0.40089853    -0.23980
H196        H  0.39083967  0.35436570  0.45820067     0.15000
H197        H  0.31590306  0.36758846  0.36454853     0.15030
C198        C  0.28665623  0.37565775  0.42165438    -0.23930
H199        H  0.42828949  0.33678227  0.42451529     0.05240
H200        H  0.44623144  0.37016452  0.38990041     0.08470
H201        H  0.40733772  0.31611912  0.38485261     0.08470
H202        H  0.29440356  0.40489038  0.40973753     0.08450
H203        H  0.27964578  0.37707223  0.44781120     0.08450
H204        H  0.25833645  0.35014352  0.41017972     0.05230
C205        C  0.50818814  0.56029242  0.27360500    -0.20580
C206        C  0.55026912  0.57481447  0.27691355    -0.07150
C207        C  0.56267424  0.54586111  0.28027158     0.13720
C208        C  0.53271887  0.50373076  0.28067775    -0.20630
C209        C  0.49060422  0.48932213  0.27822120    -0.07150
C210        C  0.47824181  0.51818724  0.27430028     0.13710
C211        C  0.43371610  0.50531331  0.27046490    -0.23980
H212        H  0.49845279  0.58212018  0.27087168     0.15000
H213        H  0.54233523  0.48182408  0.28356052     0.15030
C214        C  0.60720175  0.55854306  0.28364226    -0.23930
H215        H  0.43020553  0.53196273  0.26613280     0.05240
H216        H  0.41637627  0.48996697  0.29310011     0.08470
H217        H  0.42000263  0.48425048  0.24919536     0.08470
H218        H  0.62044402  0.57696250  0.30629627     0.08450
H219        H  0.62486839  0.57659658  0.26191914     0.08450
H220        H  0.61085227  0.53165589  0.28536799     0.05230
C221        C  0.69971985  0.68420221  0.18626378    -0.20580
C222        C  0.68201321  0.70809255  0.19061883    -0.07150
C223        C  0.67486722  0.72556079  0.16291270     0.13720
C224        C  0.68264378  0.71606868  0.13154057    -0.20630
C225        C  0.69641795  0.68876232  0.12697447    -0.07150
C226        C  0.70658205  0.67385864  0.15485978     0.13710
C227        C  0.72398470  0.64655022  0.15200570    -0.23980
H228        H  0.70574949  0.67127645  0.20754953     0.15000
H229        H  0.67564016  0.72834372  0.11036115     0.15030
C230        C  0.65891903  0.75408041  0.16611092    -0.23930
H231        H  0.73267839  0.64034380  0.17627368     0.05240
H232        H  0.75204748  0.66157880  0.13650105     0.08470
H233        H  0.70075866  0.61649738  0.14125529     0.08470
H234        H  0.67920444  0.77989943  0.18274982     0.08450
H235        H  0.62704851  0.73733912  0.17580670     0.08450
H236        H  0.65818796  0.76725246  0.14210855     0.05230
C237        C  0.70785650  0.70923293  0.42464894    -0.20580
C238        C  0.67349577  0.68441777  0.44431429    -0.07150
C239        C  0.63356316  0.66792949  0.43168969     0.13720
C240        C  0.62875820  0.67486491  0.39899089    -0.20630
C241        C  0.66287034  0.69734317  0.37826217    -0.07150
C242        C  0.70309285  0.71585219  0.39151671     0.13710
C243        C  0.74094338  0.74214657  0.37115042    -0.23980
H244        H  0.73841271  0.72174067  0.43481048     0.15000
H245        H  0.59781903  0.66126450  0.38937356     0.15030
C246        C  0.59585306  0.64272236  0.45267626    -0.23930
H247        H  0.76951974  0.75516310  0.38596914     0.05240
H248        H  0.73964013  0.76812601  0.36054277     0.08470
H249        H  0.74304366  0.72353299  0.35123959     0.08470
H250        H  0.59728716  0.66084018  0.47447399     0.08450
H251        H  0.59403301  0.61418240  0.46080887     0.08450
H252        H  0.56704557  0.63367574  0.43917768     0.05230
C253        C  0.49861807  0.04416666  0.08565645    -0.20580
C254        C  0.47277861  0.01324673  0.10783695    -0.07150
C255        C  0.49015072  0.99912132  0.13081860     0.13720
C256        C  0.53274921  0.01565038  0.13055548    -0.20630
C257        C  0.55871346  0.04643657  0.10831336    -0.07150
C258        C  0.54138584  0.06081633  0.08544574     0.13710
C259        C  0.56746214  0.09266719  0.06024979    -0.23980
H260        H  0.48514991  0.05527251  0.06827376     0.15000
H261        H  0.54604308  0.00482859  0.14835245     0.15030
C262        C  0.46429607  0.96810185  0.15666840    -0.23930
H263        H  0.54852219  0.09891002  0.04343376     0.05240
H264        H  0.58424802  0.08178961  0.04529284     0.08470
H265        H  0.58982397  0.12194500  0.07253478     0.08470
H266        H  0.44146460  0.93856258  0.14497726     0.08450
H267        H  0.44805680  0.97969497  0.17151145     0.08450
H268        H  0.48329951  0.96204230  0.17356217     0.05230
C269        C  0.65603415  0.86555519  0.33806130    -0.20580
C270        C  0.61844576  0.86397987  0.33735995    -0.07150
C271        C  0.58408822  0.82993180  0.32214103     0.13720
C272        C  0.58855332  0.79887046  0.30797077    -0.20630
C273        C  0.62640685  0.80083323  0.30833435    -0.07150
C274        C  0.66059288  0.83473190  0.32397673     0.13710
C275        C  0.70203097  0.83878200  0.32679228    -0.23980
H276        H  0.68244546  0.89141174  0.34972857     0.15000
H277        H  0.56217699  0.77281812  0.29645793     0.15030
C278        C  0.54284202  0.82622775  0.32009324    -0.23930
H279        H  0.72459022  0.86687251  0.34041631     0.05240
H280        H  0.71501044  0.84080389  0.30204301     0.08470
H281        H  0.69888736  0.81209721  0.34023187     0.08470
H282        H  0.54585120  0.85274021  0.30648758     0.08450
H283        H  0.53091184  0.82517179  0.34510596     0.08450
H284        H  0.51975407  0.79782529  0.30708523     0.05230
C285        C  0.68795157  0.01861790  0.25720066    -0.20580
C286        C  0.65760185  0.02019389  0.27531153    -0.07150
C287        C  0.63549582  0.03646505  0.26119598     0.13720
C288        C  0.64329974  0.04958115  0.22874147    -0.20630
C289        C  0.67224756  0.04637931  0.20981535    -0.07150
C290        C  0.69541536  0.03128224  0.22433178     0.13710
C291        C  0.72813345  0.02882739  0.20565497    -0.23980
H292        H  0.70474629  0.00609882  0.26844847     0.15000
H293        H  0.62582089  0.06156563  0.21786176     0.15030
C294        C  0.60395115  0.04054106  0.28041851    -0.23930
H295        H  0.74428554  0.01801150  0.22137891     0.05240
H296        H  0.75140951  0.05964351  0.19616943     0.08470
H297        H  0.71402379  0.00688168  0.18498203     0.08470
H298        H  0.61837968  0.05911460  0.30282429     0.08450
H299        H  0.57783328  0.00983380  0.28746051     0.08450
H300        H  0.59118857  0.05590413  0.26597978     0.05230
C301        C  0.63242361  0.98488757  0.48514340    -0.20580
C302        C  0.66300542  0.00268929  0.46084696    -0.07150
C303        C  0.70295666  0.03534932  0.46971571     0.13720
C304        C  0.71030082  0.05059286  0.00199875    -0.20630
C305        C  0.67905917  0.03368672  0.02558273    -0.07150
C306        C  0.63981215  0.00018449  0.01720322     0.13710
C307        C  0.60481288  0.98216972  0.04149589    -0.23980
H308        H  0.60177407  0.96001647  0.47873141     0.15000
H309        H  0.74029184  0.07642241  0.00872614     0.15030
C310        C  0.73795011  0.05465989  0.44553835    -0.23930
H311        H  0.57582917  0.95692542  0.03058528     0.05240
H312        H  0.59903879  0.00629117  0.05005354     0.08470
H313        H  0.61259403  0.96954407  0.06277967     0.08470
H314        H  0.73132694  0.07044607  0.42598167     0.08450
H315        H  0.74254612  0.03071885  0.43466425     0.08450
H316        H  0.76730152  0.07793282  0.45736107     0.05230
C317        C  0.45172428  0.26839799  0.31633199    -0.20580
C318        C  0.41310462  0.26356482  0.31036069    -0.07150
C319        C  0.37715970  0.22621902  0.31969911     0.13720
C320        C  0.38096868  0.19529231  0.33437090    -0.20630
C321        C  0.41945467  0.19988877  0.34017850    -0.07150
C322        C  0.45544859  0.23717290  0.33093689     0.13710
C323        C  0.49790826  0.24450411  0.33604167    -0.23980
H324        H  0.47935953  0.29695279  0.30961299     0.15000
H325        H  0.35321919  0.16688511  0.34117036     0.15030
C326        C  0.33435520  0.21827522  0.31485466    -0.23930
H327        H  0.52230257  0.27552352  0.32773711     0.05240
H328        H  0.50139060  0.22173385  0.32182366     0.08470
H329        H  0.50302329  0.24205309  0.36246854     0.08470
H330        H  0.32869230  0.22003959  0.28843246     0.08450
H331        H  0.33067679  0.24099078  0.32897710     0.08450
H332        H  0.31022951  0.18731634  0.32349445     0.05230
C333        C  0.34849167  0.04061298  0.25913397    -0.20580
C334        C  0.38772461  0.05424596  0.27206967    -0.07150
C335        C  0.41805011  0.05422403  0.25201373     0.13720
C336        C  0.40819801  0.04038083  0.21976192    -0.20630
C337        C  0.36921249  0.02693745  0.20678165    -0.07150
C338        C  0.33891203  0.02713808  0.22649265     0.13710
C339        C  0.29623624  0.01170118  0.21365934    -0.23980
H340        H  0.32538056  0.04065599  0.27455373     0.15000
H341        H  0.43113564  0.03973566  0.20449017     0.15030
C342        C  0.46044737  0.06716056  0.26450050    -0.23930
H343        H  0.27605929  0.01284434  0.23271469     0.05240
H344        H  0.28202037  0.97937716  0.20539884     0.08470
H345        H  0.29773356  0.03093864  0.19279012     0.08470
H346        H  0.45788839  0.04911080  0.28659047     0.08450
H347        H  0.47790091  0.10039936  0.27043830     0.08450
H348        H  0.47867736  0.06205732  0.24597992     0.05230
C349        C  0.39393169  0.05147896  0.01745028    -0.20580
C350        C  0.35272644  0.02233069  0.02416915    -0.07150
C351        C  0.32286975  0.01076814  0.99950733     0.13720
C352        C  0.33516221  0.02878188  0.46828184    -0.20630
C353        C  0.37677739  0.05767370  0.46120543    -0.07150
C354        C  0.40659633  0.06888242  0.48631794     0.13710
C355        C  0.45214134  0.09741422  0.48046703    -0.23980
H356        H  0.41670986  0.05951975  0.03653657     0.15000
H357        H  0.31225878  0.01976888  0.44919923     0.15030
C358        C  0.27830063  0.97969734  0.00626157    -0.23930
H359        H  0.47064573  0.10074740  0.50254291     0.05240
H360        H  0.45878348  0.12846114  0.47404411     0.08470
H361        H  0.46251050  0.08516991  0.46047074     0.08470
H362        H  0.26715527  0.99078185  0.02654718     0.08450
H363        H  0.27474695  0.95002707  0.01335798     0.08450
H364        H  0.25876350  0.97435628  0.48443224     0.05230
C365        C  0.56178351  0.05614721  0.36989196    -0.20580
C366        C  0.54313703  0.01327970  0.37223450    -0.07150
C367        C  0.49975942  0.98869695  0.37478970     0.13720
C368        C  0.47661342  0.00760831  0.37484422    -0.20630
C369        C  0.49526022  0.05044150  0.37222282    -0.07150
C370        C  0.53862922  0.07502439  0.36974003     0.13710
C371        C  0.56099716  0.12101747  0.36626849    -0.23980
H372        H  0.59495532  0.07528676  0.36774733     0.15000
H373        H  0.44341281  0.98850282  0.37675182     0.15030
C374        C  0.47730620  0.94260859  0.37732185    -0.23930
H375        H  0.59479179  0.13499863  0.36403915     0.05240
H376        H  0.55538711  0.13464869  0.38817257     0.08470
H377        H  0.55030162  0.12911617  0.34389779     0.08470
H378        H  0.48781771  0.93377915  0.39938796     0.08450
H379        H  0.48303464  0.92964384  0.35504260     0.08450
H380        H  0.44350303  0.92861651  0.37948010     0.05230
C381        C  0.20452750  0.79463022  0.15193412    -0.20580
C382        C  0.18546354  0.79958661  0.17951690    -0.07150
C383        C  0.19894252  0.83958195  0.19092404     0.13720
C384        C  0.23068798  0.87347096  0.17422391    -0.20630
C385        C  0.24949673  0.86864261  0.14638910    -0.07150
C386        C  0.23621175  0.82860556  0.13510665     0.13710
C387        C  0.25402179  0.82147477  0.10469506    -0.23980
H388        H  0.19359862  0.76390736  0.14282280     0.15000
H389        H  0.24130293  0.90413852  0.18329812     0.15030
C390        C  0.18084831  0.84676149  0.22117488    -0.23930
H391        H  0.23823229  0.78836211  0.09834272     0.05240
H392        H  0.28707704  0.83276785  0.10847888     0.08470
H393        H  0.25051582  0.83774965  0.08368310     0.08470
H394        H  0.18360594  0.83000658  0.24218671     0.08450
H395        H  0.14799502  0.83608432  0.21706988     0.08450
H396        H  0.19697962  0.87982462  0.22777099     0.05230
C397        C  0.82923750  0.26376063  0.15610860    -0.20580
C398        C  0.85422713  0.25684512  0.17707221    -0.07150
C399        C  0.84495809  0.21617885  0.18148024     0.13720
C400        C  0.81143761  0.18394610  0.16471253    -0.20630
C401        C  0.78656298  0.19083356  0.14363901    -0.07150
C402        C  0.79561744  0.23140283  0.13934204     0.13710
C403        C  0.77085301  0.24110374  0.11654537    -0.23980
H404        H  0.83655122  0.29489282  0.15224102     0.15000
H405        H  0.80418192  0.15282797  0.16859794     0.15030
C406        C  0.86946167  0.20607617  0.20428670    -0.23930
H407        H  0.78384158  0.27466107  0.11470809     0.05240
H408        H  0.73882654  0.22687680  0.12565725     0.08470
H409        H  0.77072592  0.22938025  0.09161431     0.08470
H410        H  0.87005109  0.21815624  0.22916614     0.08450
H411        H  0.90131991  0.21954829  0.19498262     0.08450
H412        H  0.85593833  0.17245104  0.20638659     0.05230
C413        C  0.04583047  0.51167178  0.20857927    -0.20580
C414        C  0.00304196  0.48436318  0.21142017    -0.07150
C415        C  0.97740541  0.50062466  0.21509963     0.13720
C416        C  0.99522111  0.54335644  0.21548263    -0.20630
C417        C  0.03794925  0.57061229  0.21226481    -0.07150
C418        C  0.06361725  0.55437753  0.20889490     0.13710
C419        C  0.10961020  0.58144731  0.20488323    -0.23980
H420        H  0.06575277  0.49957206  0.20577228     0.15000
H421        H  0.97536791  0.55555720  0.21816734     0.15030
C422        C  0.93133231  0.47359083  0.21848559    -0.23930
H423        H  0.12448117  0.56327674  0.20184747     0.05240
H424        H  0.12323609  0.60107376  0.22691236     0.08470
H425        H  0.11683784  0.60089755  0.18278619     0.08470
H426        H  0.92359983  0.45397019  0.24052621     0.08450
H427        H  0.91815397  0.45415264  0.19630109     0.08450
H428        H  0.91645848  0.49179118  0.22126259     0.05230
C429        C  0.81542087  0.60416093  0.47199418    -0.20580
C430        C  0.85457483  0.63960427  0.47614934    -0.07150
C431        C  0.85787889  0.67369470  0.99294745     0.13720
C432        C  0.82257794  0.67068410  0.00626197    -0.20630
C433        C  0.78349464  0.63524040  0.00250669    -0.07150
C434        C  0.77973635  0.60180111  0.48433998     0.13710
C435        C  0.73843758  0.56407202  0.47701802    -0.23980
H436        H  0.81269334  0.57821233  0.45883988     0.15000
H437        H  0.82562235  0.69667214  0.01958361     0.15030
C438        C  0.89838341  0.71348441  0.99747763    -0.23930
H439        H  0.74134988  0.54185639  0.46147234     0.05240
H440        H  0.71886175  0.57285994  0.46366799     0.08470
H441        H  0.72311507  0.54827495  0.50014454     0.08470
H442        H  0.91101048  0.72764810  0.97327275     0.08450
H443        H  0.92045662  0.70776524  0.01016400     0.08450
H444        H  0.89519691  0.73602184  0.01234170     0.05230
C445        C  0.04423799  0.68505336  0.36055860    -0.20580
C446        C  0.00683613  0.68290427  0.36520727    -0.07150
C447        C  0.98753274  0.68916668  0.33846124     0.13720
C448        C  0.00583296  0.69658685  0.30729079    -0.20630
C449        C  0.04252683  0.69687520  0.30208734    -0.07150
C450        C  0.06206832  0.69119897  0.32942269     0.13710
C451        C  0.10079339  0.68991534  0.32631224    -0.23980
H452        H  0.05857617  0.67977707  0.38132005     0.15000
H453        H  0.99064589  0.70097440  0.28671759     0.15030
C454        C  0.94792701  0.68835202  0.34288923    -0.23930
H455        H  0.11133032  0.68524750  0.35034006     0.05240
H456        H  0.12603216  0.71935921  0.31620170     0.08470
H457        H  0.09509851  0.66399430  0.31023242     0.08470
H458        H  0.95242764  0.71189015  0.36118227     0.08450
H459        H  0.92335818  0.65764855  0.35154686     0.08450
H460        H  0.93744893  0.69490892  0.31962392     0.05230
C461        C  0.04571824  0.68453236  0.05418055    -0.20580
C462        C  0.00758637  0.68048651  0.04902284    -0.07150
C463        C  0.98552279  0.68285136  0.07578951     0.13720
C464        C  0.00144264  0.68748440  0.10749652    -0.20630
C465        C  0.03861161  0.68920877  0.11303794    -0.07150
C466        C  0.06151280  0.68849474  0.08581361     0.13710
C467        C  0.10238348  0.69150200  0.08944976    -0.23980
H468        H  0.06225876  0.68246601  0.03338935     0.15000
H469        H  0.98425495  0.68882115  0.12809654     0.15030
C470        C  0.94587723  0.68169900  0.07092540    -0.23930
H471        H  0.11643289  0.69257518  0.06534490     0.05240
H472        H  0.09822112  0.66422004  0.10257009     0.08470
H473        H  0.12430104  0.71995804  0.10296573     0.08470
H474        H  0.92295242  0.65306946  0.05815032     0.08450
H475        H  0.95228984  0.70874246  0.05630980     0.08450
H476        H  0.93226937  0.68315511  0.09456792     0.05230
C477        C  0.22123179  0.45572367  0.46856841    -0.20580
C478        C  0.18274374  0.43209475  0.48363720    -0.07150
C479        C  0.17915320  0.40945482  0.01216018     0.13720
C480        C  0.21365756  0.40943959  0.02391541    -0.20630
C481        C  0.25192405  0.43197889  0.00834963    -0.07150
C482        C  0.25588470  0.45572751  0.48039349     0.13710
C483        C  0.29594046  0.47962286  0.46200812    -0.23980
H484        H  0.22390369  0.47332295  0.44694377     0.15000
H485        H  0.21071804  0.39155678  0.04543051     0.15030
C486        C  0.13932047  0.38621023  0.03100712    -0.23930
H487        H  0.29287400  0.49467304  0.43991683     0.05240
H488        H  0.30627914  0.45874103  0.45391244     0.08470
H489        H  0.31974884  0.50400212  0.47798187     0.08470
H490        H  0.11524579  0.36094482  0.01583845     0.08450
H491        H  0.12904477  0.40739569  0.03826388     0.08450
H492        H  0.14279647  0.37234773  0.05367854     0.05230
C493        C  0.99466261  0.49287165  0.46708328    -0.20580
C494        C  0.03328481  0.50681353  0.45253371    -0.07150
C495        C  0.05398753  0.54565293  0.43715803     0.13720
C496        C  0.03608355  0.56968619  0.43756863    -0.20630
C497        C  0.99789749  0.55604099  0.45264824    -0.07150
C498        C  0.97676380  0.51693811  0.46742572     0.13710
C499        C  0.93624129  0.50100924  0.48469414    -0.23980
H500        H  0.97855968  0.46311135  0.47886147     0.15000
H501        H  0.05218682  0.59960477  0.42601599     0.15030
C502        C  0.09448507  0.56187605  0.41975994    -0.23930
H503        H  0.92491448  0.47052947  0.99597319     0.05240
H504        H  0.91261271  0.49758339  0.46697451     0.08470
H505        H  0.93979628  0.52260996  0.00447763     0.08470
H506        H  0.09120994  0.53994340  0.40037527     0.08450
H507        H  0.11855635  0.56647791  0.43749733     0.08450
H508        H  0.10510263  0.59189446  0.40788591     0.05230
C509        C  0.03644443  0.35582200  0.34692536    -0.20580
C510        C  0.03154274  0.38350602  0.36595987    -0.07150
C511        C  0.00866852  0.39988790  0.35361692     0.13720
C512        C  0.99136882  0.38849876  0.32233673    -0.20630
C513        C  0.99718080  0.36188630  0.30250325    -0.07150
C514        C  0.01987960  0.34509682  0.31504497     0.13710
C515        C  0.02640711  0.31571703  0.29525721    -0.23980
H516        H  0.05400733  0.34334854  0.35673916     0.15000
H517        H  0.97441761  0.40181654  0.31285819     0.15030
C518        C  0.00279121  0.42981417  0.37341052    -0.23930
H519        H  0.04285865  0.30399847  0.30955138     0.05240
H520        H  0.04526168  0.33138510  0.27329873     0.08470
H521        H  0.99621426  0.28903531  0.28762318     0.08470
H522        H  0.03313385  0.45771346  0.37883480     0.08450
H523        H  0.98697329  0.41533443  0.39676594     0.08450
H524        H  0.98390694  0.43952874  0.36015849     0.05230
C525        C  0.00867395  0.35586305  0.05979310    -0.20580
C526        C  0.04202962  0.39549604  0.05286267    -0.07150
C527        C  0.06282708  0.42322875  0.07919905     0.13720
C528        C  0.04880196  0.41083665  0.11124793    -0.20630
C529        C  0.01424871  0.37225898  0.11759732    -0.07150
C530        C  0.99413543  0.34419070  0.09185869     0.13710
C531        C  0.95697532  0.30224064  0.09828098    -0.23980
H532        H  0.99290896  0.33433986  0.03996265     0.15000
H533        H  0.06334746  0.43230052  0.13136388     0.15030
C534        C  0.09897061  0.46630511  0.07420890    -0.23930
H535        H  0.94526755  0.28377339  0.07546698     0.05240
H536        H  0.93180459  0.30510494  0.10893906     0.08470
H537        H  0.96522088  0.28547916  0.11572179     0.08470
H538        H  0.08938383  0.48427744  0.05954642     0.08450
H539        H  0.12438119  0.46549098  0.06171857     0.08450
H540        H  0.11126995  0.48282788  0.09778825     0.05230
In541      In  0.07716512  0.42839241  0.95713681     1.36870
C542        C  0.05009975  0.47949328  0.95372363     0.77310
O543        O  0.08314008  0.43129325  0.90277066    -0.61140
O544        O  0.03419178  0.37633749  0.92411536    -0.52050
C545        C  0.14652208  0.43142222  0.96995110     0.69970
O546        O  0.14639087  0.46352618  0.96267341    -0.46910
C547        C  0.05371076  0.40692160  0.51814986     0.74680
O548        O  0.08777493  0.49151845  0.94985264    -0.58770
O549        O  0.03766737  0.38150720  0.99468059    -0.48860
O550        O  0.02709622  0.44161722  0.95932151    -0.55200
C551        C  0.05094474  0.39659696  0.89838142     0.84860
O552        O  0.11239289  0.39831143  0.96659094    -0.57090
O553        O  0.08048536  0.44291369  0.50961871    -0.60380
In554      In  0.96086009  0.64009060  0.95688399     1.36870
C555        C  0.98310519  0.58491839  0.95420292     0.77310
O556        O  0.95350597  0.63747774  0.90230854    -0.61140
O557        O  0.00631264  0.68924270  0.92354273    -0.52050
C558        C  0.89159942  0.63909553  0.96550690     0.69970
O559        O  0.89189885  0.60630809  0.96238816    -0.46910
C560        C  0.98957951  0.66799182  0.51620435     0.74680
O561        O  0.94561351  0.57437345  0.95455753    -0.58770
O562        O  0.00643188  0.68918486  0.99088873    -0.48860
O563        O  0.00812772  0.62303916  0.95516350    -0.55200
C564        C  0.98768538  0.67029880  0.89779318     0.84860
O565        O  0.92603739  0.67149070  0.96085123    -0.57090
O566        O  0.95774920  0.63336933  0.51111313    -0.60380
In567      In  0.96188492  0.36051292  0.70710646     1.36870
C568        C  0.98713665  0.43960769  0.71009203     0.77310
O569        O  0.95218470  0.36032063  0.76078290    -0.61140
O570        O  0.99846476  0.34934814  0.74433570    -0.52050
C571        C  0.89122994  0.29303744  0.69161894     0.69970
O572        O  0.89474329  0.32766138  0.69442284    -0.46910
C573        C  0.99524855  0.36571765  0.64982079     0.74680
O574        O  0.94947628  0.41166447  0.71187523    -0.58770
O575        O  0.00976683  0.35967665  0.67556349    -0.48860
O576        O  0.01110304  0.42645448  0.70684392    -0.55200
C577        C  0.98159825  0.35572444  0.76837988     0.84860
O578        O  0.92288921  0.29267613  0.69995294    -0.57090
O579        O  0.96395501  0.36831373  0.65364522    -0.60380
In580      In  0.07903774  0.69410084  0.70717099     1.36870
C581        C  0.05369426  0.61528889  0.71116369     0.77310
O582        O  0.08972583  0.69975414  0.76087572    -0.61140
O583        O  0.03759283  0.69995074  0.74308003    -0.52050
C584        C  0.14912370  0.76265670  0.69347362     0.69970
O585        O  0.14658677  0.72841284  0.69560302    -0.46910
C586        C  0.05216983  0.69088635  0.64724408     0.74680
O587        O  0.09134593  0.64324423  0.71349993    -0.58770
O588        O  0.03802574  0.70063188  0.67140933    -0.48860
O589        O  0.02966230  0.62830515  0.70736781    -0.55200
C590        C  0.05740317  0.69962026  0.76782928     0.84860
O591        O  0.11688687  0.76210968  0.70154942    -0.57090
O592        O  0.07862007  0.68204652  0.65457501    -0.60380
In593      In  0.41698274  0.09457511  0.86672464     1.36870
C594        C  0.46798010  0.06742259  0.87096947     0.77310
O595        O  0.42281124  0.10489184  0.92029368    -0.61140
O596        O  0.36705861  0.05371476  0.90237011    -0.52050
C597        C  0.41968208  0.16361290  0.85324922     0.69970
O598        O  0.45193756  0.16296030  0.85910033    -0.46910
C599        C  0.39671909  0.06847170  0.80630807     0.74680
O600        O  0.48051036  0.10534032  0.87242170    -0.58770
O601        O  0.37013139  0.05381936  0.82908943    -0.48860
O602        O  0.42948657  0.04418384  0.86793065    -0.55200
C603        C  0.38885992  0.07285477  0.92708683     0.84860
O604        O  0.38657641  0.12962603  0.85768692    -0.57090
O605        O  0.43230582  0.09635015  0.81493788    -0.60380
In606      In  0.62160808  0.96929975  0.86593070     1.36870
C607        C  0.57036887  0.99620009  0.87108620     0.77310
O608        O  0.61536936  0.95791016  0.91963959    -0.61140
O609        O  0.67177766  0.00787065  0.90176710    -0.52050
C610        C  0.61812248  0.90024773  0.85029639     0.69970
O611        O  0.58594441  0.90130985  0.85537053    -0.46910
C612        C  0.64641175  0.00157258  0.80781470     0.74680
O613        O  0.55777045  0.95823875  0.87100946    -0.58770
O614        O  0.67149713  0.01262816  0.83148001    -0.48860
O615        O  0.60897200  0.01947346  0.86939318    -0.55200
C616        C  0.65032635  0.98875256  0.92647957     0.84860
O617        O  0.65124358  0.93371758  0.85594764    -0.57090
O618        O  0.60990208  0.97363397  0.81399797    -0.60380
In619      In  0.35042937  0.97718789  0.61486774     1.36870
C620        C  0.42859475  0.99920719  0.60853666     0.77310
O621        O  0.33805467  0.96762151  0.56085387    -0.61140
O622        O  0.34799200  0.02285343  0.58249932    -0.52050
C623        C  0.28391096  0.90627718  0.63120869     0.69970
O624        O  0.31520387  0.90823490  0.61861126    -0.46910
C625        C  0.36095592  0.00928059  0.67370381     0.74680
O626        O  0.40008376  0.96216684  0.61258467    -0.58770
O627        O  0.34188926  0.01609147  0.65175522    -0.48860
O628        O  0.41665640  0.02418534  0.60633550    -0.55200
C629        C  0.34387401  0.00295104  0.55661991     0.84860
O630        O  0.28546997  0.94002203  0.63221415    -0.57090
O631        O  0.37398260  0.98644715  0.66521451    -0.60380
In632      In  0.68173490  0.08420736  0.61466564     1.36870
C633        C  0.60316709  0.06114674  0.60943635     0.77310
O634        O  0.69276362  0.08974327  0.56054521    -0.61140
O635        O  0.68096059  0.03509367  0.58428918    -0.52050
C636        C  0.75023999  0.15428689  0.62878509     0.69970
O637        O  0.71735419  0.15280067  0.62106530    -0.46910
C638        C  0.67702643  0.05981226  0.67541976     0.74680
O639        O  0.63185984  0.09736077  0.60263887    -0.58770
O640        O  0.68983276  0.04675113  0.65263588    -0.48860
O641        O  0.61518720  0.03767760  0.61840314    -0.55200
C642        C  0.68577232  0.05379121  0.55768762     0.84860
O643        O  0.74878304  0.12073091  0.62547806    -0.57090
O644        O  0.66693666  0.08491878  0.66656861    -0.60380
In645      In  0.63300982  0.70039862  0.78208681     1.36870
C646        C  0.57982103  0.62005483  0.77767833     0.77310
O647        O  0.63406380  0.70937578  0.72817405    -0.61140
O648        O  0.68416114  0.70812318  0.74966863    -0.52050
C649        C  0.62839291  0.76565784  0.79491716     0.69970
O650        O  0.59663346  0.73101723  0.78863360    -0.46910
C651        C  0.65399921  0.69957360  0.84331319     0.74680
O652        O  0.56897738  0.64598007  0.77401198    -0.58770
O653        O  0.68033202  0.71198047  0.82044018    -0.48860
O654        O  0.61775506  0.63590020  0.78279193    -0.55200
C655        C  0.66702186  0.70977193  0.72372002     0.84860
O656        O  0.66190077  0.76713306  0.79065781    -0.57090
O657        O  0.61788634  0.68766243  0.83412876    -0.60380
In658      In  0.40629974  0.36415925  0.78443725     1.36870
C659        C  0.46071602  0.44429754  0.78022418     0.77310
O660        O  0.40722832  0.35579417  0.73019317    -0.61140
O661        O  0.35658866  0.35696591  0.75031785    -0.52050
C662        C  0.41151212  0.29904810  0.79715795     0.69970
O663        O  0.44320456  0.33449339  0.79359010    -0.46910
C664        C  0.37902993  0.36088447  0.84463468     0.74680
O665        O  0.47099231  0.41788757  0.77714261    -0.58770
O666        O  0.35553335  0.35123310  0.81999171    -0.48860
O667        O  0.42295483  0.42916698  0.78564436    -0.55200
C668        C  0.37449418  0.35546095  0.72474111     0.84860
O669        O  0.37822822  0.29699976  0.79043780    -0.57090
O670        O  0.41601577  0.37360219  0.83784482    -0.60380
In671      In  0.68411432  0.64239455  0.53323724     1.36870
C672        C  0.60446381  0.58643676  0.53923579     0.77310
O673        O  0.69476782  0.64104016  0.58699107    -0.61140
O674        O  0.69345544  0.69186240  0.56813665    -0.52050
C675        C  0.74779048  0.63638784  0.51574560     0.69970
O676        O  0.71227387  0.60514080  0.51983736    -0.46910
C677        C  0.67910189  0.67098270  0.97626675     0.74680
O678        O  0.63185788  0.57726729  0.54031711    -0.58770
O679        O  0.69660382  0.69483330  0.00027512    -0.48860
O680        O  0.61849127  0.62430563  0.53616997    -0.55200
C681        C  0.69588309  0.67393839  0.59316457     0.84860
O682        O  0.75072338  0.66982995  0.52319815    -0.57090
O683        O  0.66531632  0.63360728  0.98156877    -0.60380
In684      In  0.34723857  0.41581986  0.53367300     1.36870
C685        C  0.42752794  0.47177955  0.53727303     0.77310
O686        O  0.34035551  0.41856878  0.58808379    -0.61140
O687        O  0.33818369  0.36615911  0.56849317    -0.52050
C688        C  0.28595503  0.42729871  0.52017649     0.69970
O689        O  0.32323974  0.45593563  0.51937391    -0.46910
C690        C  0.34309030  0.38206323  0.97603785     0.74680
O691        O  0.40024325  0.48033861  0.54246164    -0.58770
O692        O  0.33723236  0.36246190  0.00238081    -0.48860
O693        O  0.41331245  0.43467120  0.53023555    -0.55200
C694        C  0.33866617  0.38536142  0.59386979     0.84860
O695        O  0.27993021  0.39355395  0.53074769    -0.57090
O696        O  0.35064614  0.41803882  0.97946979    -0.60380
C697        C  0.49914612  0.48681413  0.53883213    -0.20580
C698        C  0.47257597  0.50194916  0.53918633    -0.07150
C699        C  0.48978620  0.54488925  0.54062160     0.13720
C700        C  0.53275152  0.57116542  0.54126303    -0.20630
C701        C  0.55937303  0.55607003  0.54048331    -0.07150
C702        C  0.54212447  0.51309112  0.53943771     0.13830
C703        C  0.56837453  0.49433883  0.53841511    -0.23980
H704        H  0.48620222  0.45396740  0.53787726     0.15000
H705        H  0.54562693  0.60400510  0.54202529     0.15030
C706        C  0.46349699  0.56362328  0.54078791    -0.23930
H707        H  0.54946459  0.46029213  0.53752998     0.05240
H708        H  0.58783723  0.50316211  0.56071270     0.08470
H709        H  0.58807084  0.50485210  0.51620797     0.08470
H710        H  0.44371117  0.55366254  0.56293571     0.08450
H711        H  0.44410250  0.55420429  0.51841584     0.08450
H712        H  0.48238250  0.59768410  0.54116812     0.05230
C713        C  0.33647117  0.37483080  0.68691603    -0.20580
C714        C  0.35997890  0.35660724  0.69112488    -0.07150
C715        C  0.37165494  0.34327373  0.66302725     0.13720
C716        C  0.36153129  0.35060634  0.63173223    -0.20630
C717        C  0.34109800  0.37195585  0.62752229    -0.07150
C718        C  0.32733811  0.38315331  0.65558638     0.13710
C719        C  0.30308150  0.40391438  0.65284747    -0.23980
H720        H  0.32696568  0.38463512  0.70828869     0.15000
H721        H  0.37176183  0.34159715  0.61031946     0.15030
C722        C  0.39501844  0.32156193  0.66558573    -0.23930
H723        H  0.29242129  0.40777430  0.67715432     0.05240
H724        H  0.27551192  0.38515055  0.63729445     0.08470
H725        H  0.32244237  0.43492345  0.64210167     0.08470
H726        H  0.37804487  0.29427863  0.68162541     0.08450
H727        H  0.42624430  0.34265390  0.67562506     0.08450
H728        H  0.39893306  0.31088082  0.64130709     0.05230
C729        C  0.37394067  0.35628542  0.93766172    -0.20580
C730        C  0.34398247  0.36612548  0.94349636    -0.07150
C731        C  0.32155277  0.36841106  0.91695794     0.13720
C732        C  0.33216343  0.36430350  0.88490651    -0.20630
C733        C  0.36503156  0.35860499  0.87880991    -0.07150
C734        C  0.38509018  0.35279901  0.90562126     0.13710
C735        C  0.41859113  0.34344771  0.90089855    -0.23980
H736        H  0.39083950  0.35436561  0.95820068     0.15000
H737        H  0.31590297  0.36758842  0.86454850     0.15030
C738        C  0.28665608  0.37565766  0.92165435    -0.23930
H739        H  0.42828940  0.33678226  0.92451531     0.05240
H740        H  0.44623136  0.37016453  0.88990045     0.08470
H741        H  0.40733768  0.31611914  0.88485262     0.08470
H742        H  0.29440342  0.40489029  0.90973751     0.08450
H743        H  0.27964560  0.37707212  0.94781117     0.08450
H744        H  0.25833631  0.35014343  0.91017967     0.05230
C745        C  0.50818810  0.56029246  0.77360505    -0.20580
C746        C  0.55026908  0.57481451  0.77691357    -0.07150
C747        C  0.56267421  0.54586115  0.78027154     0.13720
C748        C  0.53271885  0.50373080  0.78067772    -0.20630
C749        C  0.49060419  0.48932216  0.77822121    -0.07150
C750        C  0.47824177  0.51818728  0.77430034     0.13710
C751        C  0.43371606  0.50531335  0.77046502    -0.23980
H752        H  0.49845275  0.58212022  0.77087178     0.15000
H753        H  0.54233522  0.48182412  0.78356044     0.15030
C754        C  0.60720173  0.55854311  0.78364215    -0.23930
H755        H  0.43020548  0.53196276  0.76613295     0.05240
H756        H  0.41637626  0.48996700  0.79310024     0.08470
H757        H  0.42000256  0.48425053  0.74919547     0.08470
H758        H  0.62044405  0.57696252  0.80629616     0.08450
H759        H  0.62486833  0.57659666  0.76191903     0.08450
H760        H  0.61085227  0.53165594  0.78536782     0.05230
C761        C  0.69971999  0.68420239  0.68626388    -0.20580
C762        C  0.68201332  0.70809270  0.69061891    -0.07150
C763        C  0.67486739  0.72556098  0.66291279     0.13720
C764        C  0.68264404  0.71606894  0.63154066    -0.20630
C765        C  0.69641824  0.68876260  0.62697457    -0.07150
C766        C  0.70658227  0.67385887  0.65485989     0.13710
C767        C  0.72398494  0.64655046  0.65200582    -0.23980
H768        H  0.70574958  0.67127659  0.70754964     0.15000
H769        H  0.67564046  0.72834401  0.61036124     0.15030
C770        C  0.65891917  0.75408057  0.66611099    -0.23930
H771        H  0.73267858  0.64034402  0.67627382     0.05240
H772        H  0.75204776  0.66157908  0.63650122     0.08470
H773        H  0.70075893  0.61649763  0.64125538     0.08470
H774        H  0.67920452  0.77989957  0.68274993     0.08450
H775        H  0.62704862  0.73733924  0.67580672     0.08450
H776        H  0.65818815  0.76725266  0.64210863     0.05230
C777        C  0.70785634  0.70923293  0.92464898    -0.20580
C778        C  0.67349558  0.68441794  0.94431435    -0.07150
C779        C  0.63356299  0.66792991  0.93168978     0.13720
C780        C  0.62875807  0.67486536  0.89899099    -0.20630
C781        C  0.66287023  0.69734339  0.87826223    -0.07150
C782        C  0.70309273  0.71585222  0.89151675     0.13710
C783        C  0.74094329  0.74214640  0.87115044    -0.23980
H784        H  0.73841254  0.72174048  0.93481051     0.15000
H785        H  0.59781891  0.66126514  0.88937367     0.15030
C786        C  0.59585287  0.64272300  0.95267638    -0.23930
H787        H  0.76951965  0.75516280  0.88596915     0.05240
H788        H  0.73964022  0.76812593  0.86054277     0.08470
H789        H  0.74304342  0.72353271  0.85123963     0.08470
H790        H  0.59728715  0.66084090  0.97447412     0.08450
H791        H  0.59403259  0.61418293  0.96080899     0.08450
H792        H  0.56704541  0.63367658  0.93917783     0.05230
C793        C  0.49861794  0.04416652  0.58565650    -0.20580
C794        C  0.47277850  0.01324659  0.60783701    -0.07150
C795        C  0.49015065  0.99912122  0.63081866     0.13720
C796        C  0.53274914  0.01565032  0.63055553    -0.20630
C797        C  0.55871337  0.04643650  0.60831340    -0.07150
C798        C  0.54138572  0.06081623  0.58544578     0.13710
C799        C  0.56746200  0.09266708  0.56024983    -0.23980
H800        H  0.48514976  0.05527235  0.56827381     0.15000
H801        H  0.54604304  0.00482855  0.64835250     0.15030
C802        C  0.46429602  0.96810176  0.65666848    -0.23930
H803        H  0.54852203  0.09890989  0.54343380     0.05240
H804        H  0.58424789  0.08178952  0.54529287     0.08470
H805        H  0.58982381  0.12194490  0.57253481     0.08470
H806        H  0.44146456  0.93856247  0.64497735     0.08450
H807        H  0.44805674  0.97969487  0.67151152     0.08450
H808        H  0.48329948  0.96204224  0.67356224     0.05230
C809        C  0.65603410  0.86555521  0.83806130    -0.20580
C810        C  0.61844572  0.86397991  0.83735995    -0.07150
C811        C  0.58408818  0.82993185  0.82214102     0.13720
C812        C  0.58855326  0.79887051  0.80797075    -0.20630
C813        C  0.62640680  0.80083327  0.80833433    -0.07150
C814        C  0.66059282  0.83473192  0.82397672     0.13710
C815        C  0.70203091  0.83878201  0.82679228    -0.23980
H816        H  0.68244542  0.89141174  0.84972858     0.15000
H817        H  0.56217694  0.77281818  0.79645790     0.15030
C818        C  0.54284199  0.82622782  0.82009323    -0.23930
H819        H  0.72459015  0.86687250  0.84041633     0.05240
H820        H  0.71501038  0.84080391  0.80204301     0.08470
H821        H  0.69888728  0.81209720  0.84023185     0.08470
H822        H  0.54585117  0.85274028  0.80648758     0.08450
H823        H  0.53091180  0.82517184  0.84510595     0.08450
H824        H  0.51975403  0.79782536  0.80708521     0.05230
C825        C  0.68795156  0.01861792  0.75720065    -0.20580
C826        C  0.65760184  0.02019391  0.77531153    -0.07150
C827        C  0.63549581  0.03646506  0.76119598     0.13720
C828        C  0.64329972  0.04958116  0.72874147    -0.20630
C829        C  0.67224754  0.04637932  0.70981534    -0.07150
C830        C  0.69541534  0.03128225  0.72433177     0.13710
C831        C  0.72813343  0.02882740  0.70565496    -0.23980
H832        H  0.70474628  0.00609884  0.76844846     0.15000
H833        H  0.62582086  0.06156563  0.71786176     0.15030
C834        C  0.60395114  0.04054107  0.78041851    -0.23930
H835        H  0.74428552  0.01801152  0.72137890     0.05240
H836        H  0.75140949  0.05964352  0.69616941     0.08470
H837        H  0.71402377  0.00688169  0.68498202     0.08470
H838        H  0.61837967  0.05911461  0.80282429     0.08450
H839        H  0.57783327  0.00983381  0.78746051     0.08450
H840        H  0.59118855  0.05590415  0.76597978     0.05230
C841        C  0.63242363  0.98488759  0.98514340    -0.20580
C842        C  0.66300544  0.00268930  0.96084696    -0.07150
C843        C  0.70295668  0.03534932  0.96971571     0.13720
C844        C  0.71030079  0.05059286  0.50199875    -0.20630
C845        C  0.67905913  0.03368672  0.52558272    -0.07150
C846        C  0.63981212  0.00018448  0.51720321     0.13710
C847        C  0.60481285  0.98216970  0.54149588    -0.23980
H848        H  0.60177409  0.96001650  0.97873141     0.15000
H849        H  0.74029180  0.07642243  0.50872613     0.15030
C850        C  0.73795013  0.05465989  0.94553835    -0.23930
H851        H  0.57582914  0.95692539  0.53058527     0.05240
H852        H  0.59903875  0.00629114  0.55005353     0.08470
H853        H  0.61259401  0.96954407  0.56277967     0.08470
H854        H  0.73132697  0.07044608  0.92598168     0.08450
H855        H  0.74254613  0.03071884  0.93466424     0.08450
H856        H  0.76730155  0.07793281  0.95736107     0.05230
C857        C  0.45172429  0.26839805  0.81633200    -0.20580
C858        C  0.41310462  0.26356486  0.81036068    -0.07150
C859        C  0.37715971  0.22621904  0.81969907     0.13720
C860        C  0.38096869  0.19529234  0.83437085    -0.20630
C861        C  0.41945468  0.19988881  0.84017846    -0.07150
C862        C  0.45544860  0.23717296  0.83093688     0.13710
C863        C  0.49790827  0.24450418  0.83604169    -0.23980
H864        H  0.47935954  0.29695286  0.80961301     0.15000
H865        H  0.35321920  0.16688513  0.84117029     0.15030
C866        C  0.33435521  0.21827523  0.81485461    -0.23930
H867        H  0.52230258  0.27552360  0.82773715     0.05240
H868        H  0.50139065  0.22173395  0.82182367     0.08470
H869        H  0.50302329  0.24205313  0.86246856     0.08470
H870        H  0.32869232  0.22003962  0.78843240     0.08450
H871        H  0.33067677  0.24099078  0.82897705     0.08450
H872        H  0.31022952  0.18731634  0.82349438     0.05230
C873        C  0.34849164  0.04061294  0.75913395    -0.20580
C874        C  0.38772460  0.05424597  0.77206963    -0.07150
C875        C  0.41805009  0.05422404  0.75201367     0.13720
C876        C  0.40819796  0.04038077  0.71976188    -0.20630
C877        C  0.36921241  0.02693734  0.70678164    -0.07150
C878        C  0.33891197  0.02713798  0.72649264     0.13710
C879        C  0.29623616  0.01170103  0.71365936    -0.23980
H880        H  0.32538054  0.04065595  0.77455372     0.15000
H881        H  0.43113558  0.03973559  0.70449012     0.15030
C882        C  0.46044739  0.06716063  0.76450041    -0.23930
H883        H  0.27605923  0.01284422  0.73271472     0.05240
H884        H  0.28202030  0.97937701  0.70539890     0.08470
H885        H  0.29773344  0.03093845  0.69279012     0.08470
H886        H  0.45788846  0.04911090  0.78659040     0.08450
H887        H  0.47790090  0.10039943  0.77043819     0.08450
H888        H  0.47867737  0.06205740  0.74597982     0.05230
C889        C  0.39393163  0.05147876  0.51745031    -0.20580
C890        C  0.35272637  0.02233051  0.52416917    -0.07150
C891        C  0.32286968  0.01076803  0.49950736     0.13720
C892        C  0.33516226  0.02878197  0.96828179    -0.20630
C893        C  0.37677743  0.05767381  0.96120538    -0.07150
C894        C  0.40659638  0.06888258  0.98631789     0.13710
C895        C  0.45214139  0.09741439  0.98046698    -0.23980
H896        H  0.41670980  0.05951950  0.53653660     0.15000
H897        H  0.31225883  0.01976892  0.94919918     0.15030
C898        C  0.27830055  0.97969726  0.50626160    -0.23930
H899        H  0.47064579  0.10074761  0.00254287     0.05240
H900        H  0.45878351  0.12846130  0.97404403     0.08470
H901        H  0.46251056  0.08517007  0.96047071     0.08470
H902        H  0.26715522  0.99078176  0.52654723     0.08450
H903        H  0.27474684  0.95002696  0.51335798     0.08450
H904        H  0.25876358  0.97435632  0.98443221     0.05230
C905        C  0.56178354  0.05614726  0.86989196    -0.20580
C906        C  0.54313706  0.01327975  0.87223451    -0.07150
C907        C  0.49975945  0.98869701  0.87478971     0.13720
C908        C  0.47661344  0.00760836  0.87484422    -0.20630
C909        C  0.49526024  0.05044155  0.87222280    -0.07150
C910        C  0.53862925  0.07502444  0.86974002     0.13710
C911        C  0.56099719  0.12101752  0.86626847    -0.23980
H912        H  0.59495535  0.07528682  0.86774733     0.15000
H913        H  0.44341284  0.98850287  0.87675182     0.15030
C914        C  0.47730622  0.94260865  0.87732187    -0.23930
H915        H  0.59479182  0.13499868  0.86403914     0.05240
H916        H  0.55538713  0.13464875  0.88817255     0.08470
H917        H  0.55030166  0.12911622  0.84389777     0.08470
H918        H  0.48781774  0.93377921  0.89938798     0.08450
H919        H  0.48303466  0.92964389  0.85504263     0.08450
H920        H  0.44350305  0.92861657  0.87948012     0.05230
C921        C  0.20452698  0.79463002  0.65193402    -0.20580
C922        C  0.18546292  0.79958643  0.67951673    -0.07150
C923        C  0.19894193  0.83958178  0.69092385     0.13720
C924        C  0.23068751  0.87347078  0.67422378    -0.20630
C925        C  0.24949636  0.86864241  0.64638905    -0.07150
C926        C  0.23621135  0.82860535  0.63510661     0.13710
C927        C  0.25402149  0.82147453  0.60469509    -0.23980
H928        H  0.19359811  0.76390715  0.64282271     0.15000
H929        H  0.24130246  0.90413834  0.68329798     0.15030
C930        C  0.18084763  0.84676137  0.72117462    -0.23930
H931        H  0.23823196  0.78836187  0.59834274     0.05240
H932        H  0.28707671  0.83276755  0.60847902     0.08470
H933        H  0.25051565  0.83774945  0.58368310     0.08470
H934        H  0.18360511  0.83000640  0.74218647     0.08450
H935        H  0.14799439  0.83608428  0.71706951     0.08450
H936        H  0.19697898  0.87982449  0.72777073     0.05230
C937        C  0.82923750  0.26376062  0.65610858    -0.20580
C938        C  0.85422714  0.25684511  0.67707217    -0.07150
C939        C  0.84495810  0.21617883  0.68148019     0.13720
C940        C  0.81143760  0.18394609  0.66471250    -0.20630
C941        C  0.78656296  0.19083355  0.64363899    -0.07150
C942        C  0.79561743  0.23140282  0.63934203     0.13710
C943        C  0.77085299  0.24110374  0.61654538    -0.23980
H944        H  0.83655123  0.29489281  0.65224100     0.15000
H945        H  0.80418192  0.15282795  0.66859790     0.15030
C946        C  0.86946169  0.20607615  0.70428664    -0.23930
H947        H  0.78384156  0.27466106  0.61470809     0.05240
H948        H  0.73882653  0.22687680  0.62565727     0.08470
H949        H  0.77072589  0.22938024  0.59161431     0.08470
H950        H  0.87005112  0.21815622  0.72916608     0.08450
H951        H  0.90131993  0.21954827  0.69498255     0.08450
H952        H  0.85593836  0.17245102  0.70638652     0.05230
C953        C  0.04583023  0.51167181  0.70857937    -0.20580
C954        C  0.00304174  0.48436313  0.71142025    -0.07150
C955        C  0.97740509  0.50062452  0.71509969     0.13720
C956        C  0.99522070  0.54335628  0.71548267    -0.20630
C957        C  0.03794883  0.57061222  0.71226485    -0.07150
C958        C  0.06361692  0.55437756  0.70889499     0.13710
C959        C  0.10960986  0.58144743  0.70488336    -0.23980
H960        H  0.06575260  0.49957217  0.70577240     0.15000
H961        H  0.97536743  0.55555697  0.71816736     0.15030
C962        C  0.93133201  0.47359060  0.71848566    -0.23930
H963        H  0.12448092  0.56327692  0.70184765     0.05240
H964        H  0.12323568  0.60107390  0.72691249     0.08470
H965        H  0.11683749  0.60089764  0.68278630     0.08470
H966        H  0.92359958  0.45396997  0.74052629     0.08450
H967        H  0.91815369  0.45415240  0.69630117     0.08450
H968        H  0.91645811  0.49179088  0.72126266     0.05230
C969        C  0.81542034  0.60416100  0.97199318    -0.20580
C970        C  0.85457439  0.63960389  0.97614939    -0.07150
C971        C  0.85787932  0.67369565  0.49294645     0.13720
C972        C  0.82257845  0.67068518  0.50626108    -0.20630
C973        C  0.78349526  0.63524098  0.50250687    -0.07150
C974        C  0.77973573  0.60180115  0.98433883     0.13710
C975        C  0.73843687  0.56407279  0.97701565    -0.23980
H976        H  0.81269283  0.57821285  0.95883815     0.15000
H977        H  0.82562283  0.69667368  0.51958194     0.15030
C978        C  0.89838368  0.71348592  0.49747541    -0.23930
H979        H  0.74134921  0.54185768  0.96146930     0.05240
H980        H  0.71886175  0.57286181  0.96366588     0.08470
H981        H  0.72311358  0.54827470  0.00014166     0.08470
H982        H  0.91101013  0.72764836  0.47327006     0.08450
H983        H  0.92045751  0.70776800  0.51016224     0.08450
H984        H  0.89519706  0.73602395  0.51233853     0.05230
C985        C  0.04423766  0.68505330  0.86055864    -0.20580
C986        C  0.00683583  0.68290425  0.86520738    -0.07150
C987        C  0.98753241  0.68916670  0.83846140     0.13720
C988        C  0.00583255  0.69658686  0.80729092    -0.20630
C989        C  0.04252638  0.69687517  0.80208740    -0.07150
C990        C  0.06206792  0.69119890  0.82942270     0.13710
C991        C  0.10079296  0.68991523  0.82631217    -0.23980
H992        H  0.05857586  0.67977697  0.88132006     0.15000
H993        H  0.99064545  0.70097444  0.78671777     0.15030
C994        C  0.94792671  0.68835210  0.84288948    -0.23930
H995        H  0.11132992  0.68524736  0.85033995     0.05240
H996        H  0.12603172  0.71935910  0.81620162     0.08470
H997        H  0.09509802  0.66399419  0.81023232     0.08470
H998        H  0.95242742  0.71189025  0.86118253     0.08450
H999        H  0.92335789  0.65764865  0.85154714     0.08450
H1000       H  0.93744859  0.69490901  0.81962420     0.05230
C1001       C  0.04571850  0.68453504  0.55418062    -0.20580
C1002       C  0.00758521  0.68048601  0.54902299    -0.07150
C1003       C  0.98552013  0.68284811  0.57578980     0.13720
C1004       C  0.00144011  0.68748165  0.60749682    -0.20630
C1005       C  0.03861053  0.68920894  0.61303810    -0.07150
C1006       C  0.06151309  0.68849768  0.58581370     0.13710
C1007       C  0.10238536  0.69150832  0.58944982    -0.23980
H1008       H  0.06226022  0.68247084  0.53338932     0.15000
H1009       H  0.98425132  0.68881623  0.62809697     0.15030
C1010       C  0.94587262  0.68169202  0.57092586    -0.23930
H1011       H  0.11643578  0.69258373  0.56534496     0.05240
H1012       H  0.09822504  0.66422671  0.60256937     0.08470
H1013       H  0.12430111  0.71996439  0.60296657     0.08470
H1014       H  0.92294927  0.65306163  0.55815099     0.08450
H1015       H  0.95228264  0.70873451  0.55631012     0.08450
H1016       H  0.93226417  0.68314692  0.59456846     0.05230
C1017       C  0.22123165  0.45572364  0.96856843    -0.20580
C1018       C  0.18274358  0.43209473  0.98363720    -0.07150
C1019       C  0.17915341  0.40945489  0.51216020     0.13720
C1020       C  0.21365780  0.40943972  0.52391543    -0.20630
C1021       C  0.25192428  0.43197903  0.50834963    -0.07150
C1022       C  0.25588452  0.45572741  0.98039351     0.13710
C1023       C  0.29594029  0.47962275  0.96200816    -0.23980
H1024       H  0.22390358  0.47332295  0.94694380     0.15000
H1025       H  0.21071832  0.39155694  0.54543054     0.15030
C1026       C  0.13932070  0.38621028  0.53100715    -0.23930
H1027       H  0.29287387  0.49467296  0.93991688     0.05240
H1028       H  0.30627895  0.45874089  0.95391247     0.08470
H1029       H  0.31974868  0.50400198  0.97798192     0.08470
H1030       H  0.11524602  0.36094484  0.51583850     0.08450
H1031       H  0.12904496  0.40739572  0.53826390     0.08450
H1032       H  0.14279673  0.37234782  0.55367859     0.05230
C1033       C  0.99466264  0.49287185  0.96708351    -0.20580
C1034       C  0.03328479  0.50681371  0.95253384    -0.07150
C1035       C  0.05398746  0.54565308  0.93715813     0.13720
C1036       C  0.03608348  0.56968634  0.93756876    -0.20630
C1037       C  0.99789746  0.55604117  0.95264845    -0.07150
C1038       C  0.97676383  0.51693832  0.96742599     0.13710
C1039       C  0.93624139  0.50100946  0.98469451    -0.23980
H1040       H  0.97855976  0.46311157  0.97886173     0.15000
H1041       H  0.05218671  0.59960489  0.92601608     0.15030
C1042       C  0.09448495  0.56187618  0.91975996    -0.23930
H1043       H  0.92491432  0.47052922  0.49597279     0.05240
H1044       H  0.91261273  0.49758356  0.96697493     0.08470
H1045       H  0.93979612  0.52260970  0.50447727     0.08470
H1046       H  0.09120975  0.53994349  0.90037530     0.08450
H1047       H  0.11855627  0.56647805  0.93749730     0.08450
H1048       H  0.10510248  0.59189456  0.90788591     0.05230
C1049       C  0.03644446  0.35582213  0.84692537    -0.20580
C1050       C  0.03154270  0.38350612  0.86595987    -0.07150
C1051       C  0.00866844  0.39988794  0.85361691     0.13720
C1052       C  0.99136875  0.38849877  0.82233672    -0.20630
C1053       C  0.99718080  0.36188634  0.80250325    -0.07150
C1054       C  0.01987965  0.34509693  0.81504498     0.13710
C1055       C  0.02640722  0.31571717  0.79525724    -0.23980
H1056       H  0.05400740  0.34334872  0.85673919     0.15000
H1057       H  0.97441751  0.40181650  0.81285817     0.15030
C1058       C  0.00279107  0.42981418  0.87341050    -0.23930
H1059       H  0.04285879  0.30399866  0.80955142     0.05240
H1060       H  0.04526178  0.33138525  0.77329875     0.08470
H1061       H  0.99621439  0.28903542  0.78762321     0.08470
H1062       H  0.03313368  0.45771349  0.87883479     0.08450
H1063       H  0.98697314  0.41533443  0.89676592     0.08450
H1064       H  0.98390676  0.43952871  0.86015845     0.05230
C1065       C  0.00867403  0.35586300  0.55979313    -0.20580
C1066       C  0.04202969  0.39549599  0.55286267    -0.07150
C1067       C  0.06282713  0.42322873  0.57919904     0.13720
C1068       C  0.04880201  0.41083667  0.61124792    -0.20630
C1069       C  0.01424876  0.37225900  0.61759733    -0.07150
C1070       C  0.99413551  0.34419068  0.59185872     0.13710
C1071       C  0.95697542  0.30224062  0.59828102    -0.23980
H1072       H  0.99290905  0.33433978  0.53996268     0.15000
H1073       H  0.06334750  0.43230056  0.63136386     0.15030
C1074       C  0.09897065  0.46630509  0.57420887    -0.23930
H1075       H  0.94526765  0.28377334  0.57546704     0.05240
H1076       H  0.93180467  0.30510492  0.60893909     0.08470
H1077       H  0.96522099  0.28547917  0.61572186     0.08470
H1078       H  0.08938385  0.48427740  0.55954636     0.08450
H1079       H  0.12438123  0.46549097  0.56171855     0.08450
H1080       H  0.11126998  0.48282789  0.59778821     0.05230
loop_ 
_geom_bond_atom_site_label_1 
_geom_bond_atom_site_label_2 
_geom_bond_distance 
_geom_bond_site_symmetry_2 
_ccdc_geom_bond_type 
In1           O3   2.229       .  S
In1           O4   2.245       .  S
In1          O12   2.215       .  S
In1           O6   2.261       .  S
In1           O8   2.251       .  S
In1           O9   2.240       .  S
In1          O10   2.219       .  S
In1         O553   2.200       .  S
C2            O8   1.269       .  A
C2           O10   1.262       .  A
C2          C494   1.487       .  S
O3           C11   1.262       .  A
O4           C11   1.264       .  A
C5           O12   1.261       .  A
C5            O6   1.268       .  A
C5          C478   1.479       .  S
C7           O13   1.261       .  A
C7          O549   1.269   1_554  A
C7          C526   1.483       .  S
O9          C547   1.269       .  A
C11         C510   1.471       .  S
O13        In541   2.200   1_554  S
In14         O16   2.243       .  S
In14         O17   2.234   1_655  S
In14         O25   2.215       .  S
In14         O19   2.254       .  S
In14         O21   2.267       .  S
In14         O22   2.247   1_655  S
In14         O23   2.217   1_655  S
In14        O566   2.227       .  S
C15          O21   1.266       .  A
C15          O23   1.257   1_655  A
C15         C497   1.482       .  S
O16          C24   1.263       .  A
O17          C24   1.263   1_455  A
C18          O25   1.262       .  A
C18          O19   1.267       .  A
C18         C430   1.487       .  S
C20          O26   1.259       .  A
C20         O562   1.264   1_654  A
C20         C462   1.467   1_655  S
O22         C560   1.264   1_455  A
C24         C446   1.473   1_655  S
O26        In554   2.227   1_554  S
In27         O29   2.222       .  S
In27         O30   2.254       .  S
In27         O38   2.233       .  S
In27         O32   2.244       .  S
In27         O34   2.250       .  S
In27         O35   2.248   1_655  S
In27         O36   2.220   1_655  S
In27         O39   2.201       .  S
C28          O34   1.266       .  A
C28          O36   1.261   1_655  A
C28         C414   1.488   1_655  S
O29          C37   1.263       .  A
O30          C37   1.265       .  A
C31          O38   1.262       .  A
C31          O32   1.265       .  A
C31         C398   1.487       .  S
C33          O35   1.266   1_655  A
C33          O39   1.258       .  A
C33         C529   1.459   1_655  S
C37         C513   1.485       .  S
In40         O42   2.221       .  S
In40         O43   2.250       .  S
In40         O51   2.230       .  S
In40         O45   2.245       .  S
In40         O47   2.244       .  S
In40         O48   2.250       .  S
In40         O49   2.217       .  S
In40         O52   2.194       .  S
C41          O47   1.267       .  A
C41          O49   1.262       .  A
C41         C417   1.487       .  S
O42          C50   1.262       .  A
O43          C50   1.267       .  A
C44          O51   1.262       .  A
C44          O45   1.266       .  A
C44         C382   1.481       .  S
C46          O48   1.270       .  A
C46          O52   1.258       .  A
C46         C465   1.480       .  S
C50         C449   1.492       .  S
In53         O55   2.213       .  S
In53         O56   2.253       .  S
In53         O64   2.217       .  S
In53         O58   2.252       .  S
In53         O60   2.248       .  S
In53         O61   2.250       .  S
In53         O62   2.217       .  S
In53         O65   2.186       .  S
C54          O60   1.269       .  A
C54          O62   1.262       .  A
C54         C369   1.489       .  S
O55          C63   1.263       .  A
O56          C63   1.268       .  A
C57          O64   1.264       .  A
C57          O58   1.267       .  A
C57         C321   1.493       .  S
C59          O61   1.270       .  A
C59          O65   1.260       .  A
C59         C334   1.473       .  S
C63         C353   1.488       .  S
In66         O68   2.226       .  S
In66         O69   2.240   1_565  S
In66         O77   2.215       .  S
In66         O71   2.256       .  S
In66         O73   2.252       .  S
In66         O74   2.247   1_565  S
In66         O75   2.215   1_565  S
In66         O78   2.193       .  S
C67          O73   1.269       .  A
C67          O75   1.262   1_565  A
C67         C366   1.490   1_565  S
O68          C76   1.264       .  A
O69          C76   1.264   1_545  A
C70          O77   1.262       .  A
C70          O71   1.266       .  A
C70         C270   1.490       .  S
C72          O74   1.267       .  A
C72          O78   1.260   1_545  A
C72         C286   1.462       .  S
C76         C302   1.489   1_565  S
In79         O81   2.245       .  S
In79         O82   2.235   1_565  S
In79         O90   2.230       .  S
In79         O84   2.253       .  S
In79         O86   2.251       .  S
In79         O87   2.255   1_565  S
In79         O88   2.231   1_565  S
In79         O91   2.198       .  S
C80          O86   1.267       .  A
C80          O88   1.260   1_565  A
C80         C254   1.477   1_565  S
O81          C89   1.263   1_565  A
O82          C89   1.262       .  A
C83          O90   1.262       .  A
C83          O84   1.265       .  A
C83         C385   1.484       .  S
C85          O87   1.266       .  A
C85          O91   1.258   1_545  A
C85         C337   1.468       .  S
C89         C350   1.471       .  S
In92         O94   2.240       .  S
In92         O95   2.236       .  S
In92        O103   2.223       .  S
In92         O97   2.250       .  S
In92         O99   2.264       .  S
In92        O100   2.244       .  S
In92        O101   2.214       .  S
In92        O104   2.197       .  S
C93          O99   1.268       .  A
C93         O101   1.259       .  A
C93         C257   1.481       .  S
O94         C102   1.262       .  A
O95         C102   1.262       .  A
C96         O103   1.263       .  A
C96          O97   1.266       .  A
C96         C401   1.487       .  S
C98         O100   1.267       .  A
C98         O104   1.262       .  A
C98         C289   1.475       .  S
C102        C305   1.472       .  S
In105       O107   2.227       .  S
In105       O108   2.245       .  S
In105       O116   2.215       .  S
In105       O110   2.252       .  S
In105       O112   2.254       .  S
In105       O113   2.253       .  S
In105       O114   2.220       .  S
In105       O117   2.190       .  S
C106        O112   1.269       .  A
C106        O114   1.259       .  A
C106        C206   1.491       .  S
O107        C115   1.262       .  A
O108        C115   1.265       .  A
C109        O116   1.262       .  A
C109        O110   1.267       .  A
C109        C273   1.490       .  S
C111        O113   1.268       .  A
C111        O117   1.261       .  A
C111        C241   1.481       .  S
C115        C222   1.482       .  S
In118       O120   2.241       .  S
In118       O121   2.252       .  S
In118       O129   2.220       .  S
In118       O123   2.256       .  S
In118       O125   2.256       .  S
In118       O126   2.258       .  S
In118       O127   2.222       .  S
In118       O130   2.210       .  S
C119        O125   1.267       .  A
C119        O127   1.259       .  A
C119        C209   1.489       .  S
O120        C128   1.262       .  A
O121        C128   1.265       .  A
C122        O129   1.261       .  A
C122        O123   1.267       .  A
C122        C318   1.493       .  S
C124        O126   1.267       .  A
C124        O130   1.259       .  A
C124        C193   1.480       .  S
C128        C174   1.491       .  S
In131       O133   2.239       .  S
In131       O134   2.241       .  S
In131       O142   2.221       .  S
In131       O136   2.255       .  S
In131       O138   2.250       .  S
In131       O140   2.224       .  S
In131       O679   2.254       .  S
In131       O683   2.197   1_554  S
C132        O138   1.266       .  A
C132        O140   1.261       .  A
C132        C161   1.489       .  S
O133        C141   1.262       .  A
O134        C141   1.263       .  A
C135        O142   1.261       .  A
C135        O136   1.263       .  A
C135        C433   1.487       .  S
C137        O139   1.264       .  A
C137        O143   1.258       .  A
C137        C238   1.461       .  S
O139       In671   2.254       .  S
C141        C225   1.487       .  S
O143       In671   2.197       .  S
In144       O146   2.246       .  S
In144       O147   2.254       .  S
In144       O155   2.245       .  S
In144       O149   2.240       .  S
In144       O151   2.253       .  S
In144       O153   2.233       .  S
In144       O692   2.262       .  S
In144       O696   2.217   1_554  S
C145        O151   1.262       .  A
C145        O153   1.259       .  A
C145        C158   1.488       .  S
O146        C154   1.261       .  A
O147        C154   1.263       .  A
C148        O155   1.265       .  A
C148        O149   1.262       .  A
C148        C481   1.482       .  S
C150        O152   1.265       .  A
C150        O156   1.257       .  A
C150        C190   1.469       .  S
O152       In684   2.262       .  S
C154        C177   1.489       .  S
O156       In684   2.217       .  S
C157        C158   1.407       .  A
C157        C162   1.404       .  A
C157        H164   1.084       .  S
C158        C159   1.415       .  A
C159        C160   1.404       .  A
C159        C166   1.508       .  S
C160        C161   1.408       .  A
C160        H165   1.084       .  S
C161        C162   1.416       .  A
C162        C163   1.508       .  S
C163        H167   1.111       .  S
C163        H168   1.110       .  S
C163        H169   1.110       .  S
C166        H170   1.110       .  S
C166        H171   1.110       .  S
C166        H172   1.111       .  S
C173        C174   1.406       .  A
C173        C178   1.407       .  A
C173        H180   1.084       .  S
C174        C175   1.417       .  A
C175        C176   1.407       .  A
C175        C182   1.508       .  S
C176        C177   1.405       .  A
C176        H181   1.084       .  S
C177        C178   1.416       .  A
C178        C179   1.507       .  S
C179        H183   1.111       .  S
C179        H184   1.110       .  S
C179        H185   1.109       .  S
C182        H186   1.110       .  S
C182        H187   1.109       .  S
C182        H188   1.111       .  S
C189        C190   1.398       .  A
C189        C194   1.403       .  A
C189        H196   1.085       .  S
C190        C191   1.413       .  A
C191        C192   1.402       .  A
C191        C198   1.507       .  S
C192        C193   1.403       .  A
C192        H197   1.084       .  S
C193        C194   1.420       .  A
C194        C195   1.509       .  S
C195        H199   1.111       .  S
C195        H200   1.109       .  S
C195        H201   1.111       .  S
C198        H202   1.110       .  S
C198        H203   1.109       .  S
C198        H204   1.111       .  S
C205        C206   1.403       .  A
C205        C210   1.405       .  A
C205        H212   1.084       .  S
C206        C207   1.422       .  A
C207        C208   1.405       .  A
C207        C214   1.509       .  S
C208        C209   1.403       .  A
C208        H213   1.084       .  S
C209        C210   1.420       .  A
C210        C211   1.509       .  S
C211        H215   1.111       .  S
C211        H216   1.110       .  S
C211        H217   1.111       .  S
C214        H218   1.110       .  S
C214        H219   1.110       .  S
C214        H220   1.111       .  S
C221        C222   1.404       .  A
C221        C226   1.405       .  A
C221        H228   1.084       .  S
C222        C223   1.414       .  A
C223        C224   1.404       .  A
C223        C230   1.508       .  S
C224        C225   1.406       .  A
C224        H229   1.084       .  S
C225        C226   1.418       .  A
C226        C227   1.508       .  S
C227        H231   1.111       .  S
C227        H232   1.110       .  S
C227        H233   1.109       .  S
C230        H234   1.110       .  S
C230        H235   1.109       .  S
C230        H236   1.111       .  S
C237        C238   1.401       .  A
C237        C242   1.407       .  A
C237        H244   1.084       .  S
C238        C239   1.406       .  A
C239        C240   1.394       .  A
C239        C246   1.511       .  S
C240        C241   1.407       .  A
C240        H245   1.084       .  S
C241        C242   1.418       .  A
C242        C243   1.506       .  S
C243        H247   1.111       .  S
C243        H248   1.111       .  S
C243        H249   1.110       .  S
C246        H250   1.110       .  S
C246        H251   1.109       .  S
C246        H252   1.111       .  S
C253        C254   1.405       .  A
C253        C258   1.407       .  A
C253        H260   1.087       .  S
C254        C255   1.412   1_545  A
C255        C256   1.401   1_565  A
C255        C262   1.508       .  S
C256        C257   1.405       .  A
C256        H261   1.086       .  S
C257        C258   1.414       .  A
C258        C259   1.506       .  S
C259        H263   1.111       .  S
C259        H264   1.111       .  S
C259        H265   1.109       .  S
C262        H266   1.109       .  S
C262        H267   1.111       .  S
C262        H268   1.111       .  S
C269        C270   1.404       .  A
C269        C274   1.401       .  A
C269        H276   1.084       .  S
C270        C271   1.418       .  A
C271        C272   1.409       .  A
C271        C278   1.507       .  S
C272        C273   1.406       .  A
C272        H277   1.084       .  S
C273        C274   1.420       .  A
C274        C275   1.510       .  S
C275        H279   1.111       .  S
C275        H280   1.110       .  S
C275        H281   1.111       .  S
C278        H282   1.110       .  S
C278        H283   1.110       .  S
C278        H284   1.111       .  S
C285        C286   1.401       .  A
C285        C290   1.406       .  A
C285        H292   1.084       .  S
C286        C287   1.409       .  A
C287        C288   1.394       .  A
C287        C294   1.511       .  S
C288        C289   1.404       .  A
C288        H293   1.084       .  S
C289        C290   1.416       .  A
C290        C291   1.506       .  S
C291        H295   1.111       .  S
C291        H296   1.111       .  S
C291        H297   1.110       .  S
C294        H298   1.110       .  S
C294        H299   1.109       .  S
C294        H300   1.111       .  S
C301        C302   1.406   1_565  A
C301        C846   1.400   1_565  A
C301        H308   1.084       .  S
C302        C303   1.421       .  A
C303        C844   1.408       .  A
C303        C310   1.507       .  S
C304        C305   1.400       .  A
C304        C843   1.408   1_554  A
C304        H309   1.084       .  S
C305        C306   1.410       .  A
C306        C841   1.400   1_544  A
C306        C307   1.509   1_545  S
C307        H311   1.111       .  S
C307        H312   1.111   1_565  S
C307        H313   1.110       .  S
C310        H314   1.109       .  S
C310        H315   1.111       .  S
C310        H316   1.111       .  S
C317        C318   1.407       .  A
C317        C322   1.410       .  A
C317        H324   1.084       .  S
C318        C319   1.420       .  A
C319        C320   1.402       .  A
C319        C326   1.510       .  S
C320        C321   1.405       .  A
C320        H325   1.084       .  S
C321        C322   1.418       .  A
C322        C323   1.507       .  S
C323        H327   1.111       .  S
C323        H328   1.110       .  S
C323        H329   1.110       .  S
C326        H330   1.110       .  S
C326        H331   1.110       .  S
C326        H332   1.111       .  S
C333        C334   1.405       .  A
C333        C338   1.406       .  A
C333        H340   1.084       .  S
C334        C335   1.417       .  A
C335        C336   1.395       .  A
C335        C342   1.511       .  S
C336        C337   1.399       .  A
C336        H341   1.085       .  S
C337        C338   1.411       .  A
C338        C339   1.506       .  S
C339        H343   1.111       .  S
C339        H344   1.110   1_545  S
C339        H345   1.110       .  S
C342        H346   1.111       .  S
C342        H347   1.109       .  S
C342        H348   1.111       .  S
C349        C350   1.398       .  A
C349        C894   1.400   1_554  A
C349        H356   1.085       .  S
C350        C351   1.407   1_554  A
C351        C892   1.409       .  A
C351        C358   1.504   1_546  S
C352        C353   1.410       .  A
C352        C891   1.409       .  A
C352        H357   1.084       .  S
C353        C354   1.421       .  A
C354        C889   1.400       .  A
C354        C355   1.510       .  S
C355        H359   1.111       .  S
C355        H360   1.109       .  S
C355        H361   1.111       .  S
C358        H362   1.111       .  S
C358        H363   1.110       .  S
C358        H904   1.111   1_554  S
H364        C898   1.111       .  S
C365        C366   1.409       .  A
C365        C370   1.404       .  A
C365        H372   1.084       .  S
C366        C367   1.415   1_545  A
C367        C368   1.405   1_565  A
C367        C374   1.507       .  S
C368        C369   1.408       .  A
C368        H373   1.084   1_545  S
C369        C370   1.415       .  A
C370        C371   1.508       .  S
C371        H375   1.111       .  S
C371        H376   1.110       .  S
C371        H377   1.110       .  S
C374        H378   1.110       .  S
C374        H379   1.110       .  S
C374        H380   1.111       .  S
C381        C382   1.405       .  A
C381        C386   1.407       .  A
C381        H388   1.086       .  S
C382        C383   1.413       .  A
C383        C384   1.404       .  A
C383        C390   1.508       .  S
C384        C385   1.406       .  A
C384        H389   1.086       .  S
C385        C386   1.414       .  A
C386        C387   1.506       .  S
C387        H391   1.111       .  S
C387        H392   1.109       .  S
C387        H393   1.111       .  S
C390        H394   1.111       .  S
C390        H395   1.109       .  S
C390        H396   1.111       .  S
C397        C398   1.407       .  A
C397        C402   1.407       .  A
C397        H404   1.084       .  S
C398        C399   1.416       .  A
C399        C400   1.404       .  A
C399        C406   1.508       .  S
C400        C401   1.406       .  A
C400        H405   1.084       .  S
C401        C402   1.414       .  A
C402        C403   1.507       .  S
C403        H407   1.111       .  S
C403        H408   1.109       .  S
C403        H409   1.111       .  S
C406        H410   1.111       .  S
C406        H411   1.109       .  S
C406        H412   1.111       .  S
C413        C414   1.408       .  A
C413        C418   1.403       .  A
C413        H420   1.083       .  S
C414        C415   1.416   1_455  A
C415        C416   1.404       .  A
C415        C422   1.508       .  S
C416        C417   1.407   1_655  A
C416        H421   1.084       .  S
C417        C418   1.415       .  A
C418        C419   1.508       .  S
C419        H423   1.111       .  S
C419        H424   1.110       .  S
C419        H425   1.110       .  S
C422        H426   1.110       .  S
C422        H427   1.110       .  S
C422        H428   1.111       .  S
C429        C430   1.405       .  A
C429        C434   1.409       .  A
C429        H436   1.084       .  S
C430        C971   1.418       .  A
C431        C432   1.399   1_556  A
C431        C970   1.418       .  A
C431        C438   1.508       .  S
C432        C433   1.402       .  A
C432        H437   1.084       .  S
C433        C974   1.418   1_554  A
C434        C973   1.418       .  A
C434        C435   1.507       .  S
C435        H439   1.111       .  S
C435        H440   1.111       .  S
C435        H441   1.109       .  S
C438        H442   1.110       .  S
C438        H443   1.105   1_556  S
C438        H444   1.111   1_556  S
C445        C446   1.398       .  A
C445        C450   1.403       .  A
C445        H452   1.085       .  S
C446        C447   1.408   1_455  A
C447        C448   1.407   1_655  A
C447        C454   1.506       .  S
C448        C449   1.410       .  A
C448        H453   1.084   1_455  S
C449        C450   1.422       .  A
C450        C451   1.509       .  S
C451        H455   1.111       .  S
C451        H456   1.110       .  S
C451        H457   1.110       .  S
C454        H458   1.111       .  S
C454        H459   1.110       .  S
C454        H460   1.111       .  S
C461        C462   1.396       .  A
C461        C466   1.400       .  A
C461        H468   1.084       .  S
C462        C463   1.410   1_455  A
C463        C464   1.402   1_655  A
C463        C470   1.503       .  S
C464        C465   1.403       .  A
C464        H469   1.083   1_455  S
C465        C466   1.422       .  A
C466        C467   1.510       .  S
C467        H471   1.111       .  S
C467        H472   1.110       .  S
C467        H473   1.110       .  S
C470        H474   1.110       .  S
C470        H475   1.107       .  S
C470        H476   1.111       .  S
C477        C478   1.401       .  A
C477        C482   1.408       .  A
C477        H484   1.084       .  S
C478       C1019   1.417       .  A
C479        C480   1.402       .  A
C479       C1018   1.417   1_554  A
C479        C486   1.509       .  S
C480        C481   1.400       .  A
C480        H485   1.085       .  S
C481       C1022   1.419   1_554  A
C482       C1021   1.419       .  A
C482        C483   1.507       .  S
C483        H487   1.111       .  S
C483        H488   1.110       .  S
C483        H489   1.109       .  S
C486        H490   1.109       .  S
C486        H491   1.109       .  S
C486        H492   1.111       .  S
C493        C494   1.409   1_655  A
C493        C498   1.405       .  A
C493        H500   1.084       .  S
C494        C495   1.415       .  A
C495        C496   1.404       .  A
C495        C502   1.507       .  S
C496        C497   1.406   1_455  A
C496        H501   1.085       .  S
C497        C498   1.412       .  A
C498        C499   1.507       .  S
C499        H504   1.110       .  S
C499       H1043   1.111       .  S
C499       H1045   1.111       .  S
C502        H506   1.111       .  S
C502        H507   1.110       .  S
C502        H508   1.111       .  S
H503       C1039   1.111       .  S
H505       C1039   1.111   1_554  S
C509        C510   1.401       .  A
C509        C514   1.411       .  A
C509        H516   1.084       .  S
C510        C511   1.409       .  A
C511        C512   1.398   1_455  A
C511        C518   1.510       .  S
C512        C513   1.405       .  A
C512        H517   1.084       .  S
C513        C514   1.418   1_655  A
C514        C515   1.506       .  S
C515        H519   1.111       .  S
C515        H520   1.109       .  S
C515        H521   1.110   1_455  S
C518        H522   1.110       .  S
C518        H523   1.110   1_455  S
C518        H524   1.111   1_455  S
C525        C526   1.407       .  A
C525        C530   1.402   1_455  A
C525        H532   1.084   1_455  S
C526        C527   1.423       .  A
C527        C528   1.400       .  A
C527        C534   1.510       .  S
C528        C529   1.395       .  A
C528        H533   1.085       .  S
C529        C530   1.407   1_455  A
C530        C531   1.507       .  S
C531        H535   1.111       .  S
C531        H536   1.110       .  S
C531        H537   1.110       .  S
C534        H538   1.110       .  S
C534        H539   1.110       .  S
C534        H540   1.111       .  S
In541       O543   2.229       .  S
In541       O544   2.245       .  S
In541       O552   2.215       .  S
In541       O546   2.261       .  S
In541       O548   2.251       .  S
In541       O549   2.240       .  S
In541       O550   2.219       .  S
C542        O548   1.269       .  A
C542        O550   1.262       .  A
C542       C1034   1.487       .  S
O543        C551   1.262       .  A
O544        C551   1.264       .  A
C545        O552   1.261       .  A
C545        O546   1.268       .  A
C545       C1018   1.479       .  S
C547        O553   1.261       .  A
C547       C1066   1.483       .  S
C551       C1050   1.471       .  S
In554       O556   2.243       .  S
In554       O557   2.234   1_655  S
In554       O565   2.215       .  S
In554       O559   2.254       .  S
In554       O561   2.267       .  S
In554       O562   2.247   1_655  S
In554       O563   2.217   1_655  S
C555        O561   1.266       .  A
C555        O563   1.257   1_655  A
C555       C1037   1.482       .  S
O556        C564   1.263       .  A
O557        C564   1.263   1_455  A
C558        O565   1.262       .  A
C558        O559   1.267       .  A
C558        C970   1.487       .  S
C560        O566   1.259       .  A
C560       C1002   1.467   1_655  S
C564        C986   1.473   1_655  S
In567       O569   2.222       .  S
In567       O570   2.254       .  S
In567       O578   2.233       .  S
In567       O572   2.244       .  S
In567       O574   2.250       .  S
In567       O575   2.248   1_655  S
In567       O576   2.220   1_655  S
In567       O579   2.201       .  S
C568        O574   1.266       .  A
C568        O576   1.261   1_655  A
C568        C954   1.488   1_655  S
O569        C577   1.263       .  A
O570        C577   1.265       .  A
C571        O578   1.262       .  A
C571        O572   1.265       .  A
C571        C938   1.487       .  S
C573        O575   1.266   1_655  A
C573        O579   1.258       .  A
C573       C1069   1.459   1_655  S
C577       C1053   1.485       .  S
In580       O582   2.221       .  S
In580       O583   2.250       .  S
In580       O591   2.230       .  S
In580       O585   2.245       .  S
In580       O587   2.244       .  S
In580       O588   2.250       .  S
In580       O589   2.217       .  S
In580       O592   2.194       .  S
C581        O587   1.267       .  A
C581        O589   1.262       .  A
C581        C957   1.487       .  S
O582        C590   1.262       .  A
O583        C590   1.267       .  A
C584        O591   1.262       .  A
C584        O585   1.266       .  A
C584        C922   1.481       .  S
C586        O588   1.270       .  A
C586        O592   1.258       .  A
C586       C1005   1.480       .  S
C590        C989   1.492       .  S
In593       O595   2.213       .  S
In593       O596   2.253       .  S
In593       O604   2.217       .  S
In593       O598   2.252       .  S
In593       O600   2.248       .  S
In593       O601   2.250       .  S
In593       O602   2.217       .  S
In593       O605   2.186       .  S
C594        O600   1.269       .  A
C594        O602   1.262       .  A
C594        C909   1.489       .  S
O595        C603   1.263       .  A
O596        C603   1.268       .  A
C597        O604   1.264       .  A
C597        O598   1.267       .  A
C597        C861   1.493       .  S
C599        O601   1.270       .  A
C599        O605   1.260       .  A
C599        C874   1.473       .  S
C603        C893   1.488       .  S
In606       O608   2.226       .  S
In606       O609   2.240   1_565  S
In606       O617   2.215       .  S
In606       O611   2.256       .  S
In606       O613   2.252       .  S
In606       O614   2.247   1_565  S
In606       O615   2.215   1_565  S
In606       O618   2.193       .  S
C607        O613   1.269       .  A
C607        O615   1.262   1_565  A
C607        C906   1.490   1_565  S
O608        C616   1.264       .  A
O609        C616   1.264   1_545  A
C610        O617   1.262       .  A
C610        O611   1.266       .  A
C610        C810   1.490       .  S
C612        O614   1.267       .  A
C612        O618   1.260   1_545  A
C612        C826   1.462       .  S
C616        C842   1.489   1_565  S
In619       O621   2.245       .  S
In619       O622   2.235   1_565  S
In619       O630   2.230       .  S
In619       O624   2.253       .  S
In619       O626   2.251       .  S
In619       O627   2.255   1_565  S
In619       O628   2.231   1_565  S
In619       O631   2.198       .  S
C620        O626   1.267       .  A
C620        O628   1.260   1_565  A
C620        C794   1.477   1_565  S
O621        C629   1.263   1_565  A
O622        C629   1.262       .  A
C623        O630   1.262       .  A
C623        O624   1.265       .  A
C623        C925   1.484       .  S
C625        O627   1.266       .  A
C625        O631   1.258   1_545  A
C625        C877   1.468       .  S
C629        C890   1.471       .  S
In632       O634   2.240       .  S
In632       O635   2.236       .  S
In632       O643   2.223       .  S
In632       O637   2.250       .  S
In632       O639   2.264       .  S
In632       O640   2.244       .  S
In632       O641   2.214       .  S
In632       O644   2.197       .  S
C633        O639   1.268       .  A
C633        O641   1.259       .  A
C633        C797   1.481       .  S
O634        C642   1.262       .  A
O635        C642   1.262       .  A
C636        O643   1.263       .  A
C636        O637   1.266       .  A
C636        C941   1.487       .  S
C638        O640   1.267       .  A
C638        O644   1.262       .  A
C638        C829   1.475       .  S
C642        C845   1.472       .  S
In645       O647   2.227       .  S
In645       O648   2.245       .  S
In645       O656   2.215       .  S
In645       O650   2.252       .  S
In645       O652   2.254       .  S
In645       O653   2.253       .  S
In645       O654   2.220       .  S
In645       O657   2.190       .  S
C646        O652   1.269       .  A
C646        O654   1.259       .  A
C646        C746   1.491       .  S
O647        C655   1.262       .  A
O648        C655   1.265       .  A
C649        O656   1.262       .  A
C649        O650   1.267       .  A
C649        C813   1.490       .  S
C651        O653   1.268       .  A
C651        O657   1.261       .  A
C651        C781   1.481       .  S
C655        C762   1.482       .  S
In658       O660   2.241       .  S
In658       O661   2.252       .  S
In658       O669   2.220       .  S
In658       O663   2.256       .  S
In658       O665   2.256       .  S
In658       O666   2.258       .  S
In658       O667   2.222       .  S
In658       O670   2.210       .  S
C659        O665   1.267       .  A
C659        O667   1.259       .  A
C659        C749   1.489       .  S
O660        C668   1.262       .  A
O661        C668   1.265       .  A
C662        O669   1.261       .  A
C662        O663   1.267       .  A
C662        C858   1.493       .  S
C664        O666   1.267       .  A
C664        O670   1.259       .  A
C664        C733   1.480       .  S
C668        C714   1.491       .  S
In671       O673   2.239       .  S
In671       O674   2.241       .  S
In671       O682   2.221       .  S
In671       O676   2.255       .  S
In671       O678   2.250       .  S
In671       O680   2.224       .  S
C672        O678   1.266       .  A
C672        O680   1.261       .  A
C672        C701   1.489       .  S
O673        C681   1.262       .  A
O674        C681   1.263       .  A
C675        O682   1.261       .  A
C675        O676   1.263       .  A
C675        C973   1.487       .  S
C677        O679   1.264   1_556  A
C677        O683   1.258       .  A
C677        C778   1.461       .  S
C681        C765   1.487       .  S
In684       O686   2.246       .  S
In684       O687   2.254       .  S
In684       O695   2.245       .  S
In684       O689   2.240       .  S
In684       O691   2.253       .  S
In684       O693   2.233       .  S
C685        O691   1.262       .  A
C685        O693   1.259       .  A
C685        C698   1.488       .  S
O686        C694   1.261       .  A
O687        C694   1.263       .  A
C688        O695   1.265       .  A
C688        O689   1.262       .  A
C688       C1021   1.482       .  S
C690        O692   1.265   1_556  A
C690        O696   1.257       .  A
C690        C730   1.469       .  S
C694        C717   1.489       .  S
C697        C698   1.407       .  A
C697        C702   1.404       .  A
C697        H704   1.084       .  S
C698        C699   1.415       .  A
C699        C700   1.404       .  A
C699        C706   1.508       .  S
C700        C701   1.408       .  A
C700        H705   1.084       .  S
C701        C702   1.416       .  A
C702        C703   1.508       .  S
C703        H707   1.111       .  S
C703        H708   1.110       .  S
C703        H709   1.110       .  S
C706        H710   1.110       .  S
C706        H711   1.110       .  S
C706        H712   1.111       .  S
C713        C714   1.406       .  A
C713        C718   1.407       .  A
C713        H720   1.084       .  S
C714        C715   1.417       .  A
C715        C716   1.407       .  A
C715        C722   1.508       .  S
C716        C717   1.405       .  A
C716        H721   1.084       .  S
C717        C718   1.416       .  A
C718        C719   1.507       .  S
C719        H723   1.111       .  S
C719        H724   1.110       .  S
C719        H725   1.109       .  S
C722        H726   1.110       .  S
C722        H727   1.109       .  S
C722        H728   1.111       .  S
C729        C730   1.398       .  A
C729        C734   1.403       .  A
C729        H736   1.085       .  S
C730        C731   1.413       .  A
C731        C732   1.402       .  A
C731        C738   1.507       .  S
C732        C733   1.403       .  A
C732        H737   1.084       .  S
C733        C734   1.420       .  A
C734        C735   1.509       .  S
C735        H739   1.111       .  S
C735        H740   1.109       .  S
C735        H741   1.111       .  S
C738        H742   1.110       .  S
C738        H743   1.109       .  S
C738        H744   1.111       .  S
C745        C746   1.403       .  A
C745        C750   1.405       .  A
C745        H752   1.084       .  S
C746        C747   1.422       .  A
C747        C748   1.405       .  A
C747        C754   1.509       .  S
C748        C749   1.403       .  A
C748        H753   1.084       .  S
C749        C750   1.420       .  A
C750        C751   1.509       .  S
C751        H755   1.111       .  S
C751        H756   1.110       .  S
C751        H757   1.111       .  S
C754        H758   1.110       .  S
C754        H759   1.110       .  S
C754        H760   1.111       .  S
C761        C762   1.404       .  A
C761        C766   1.405       .  A
C761        H768   1.084       .  S
C762        C763   1.414       .  A
C763        C764   1.404       .  A
C763        C770   1.508       .  S
C764        C765   1.406       .  A
C764        H769   1.084       .  S
C765        C766   1.418       .  A
C766        C767   1.508       .  S
C767        H771   1.111       .  S
C767        H772   1.110       .  S
C767        H773   1.109       .  S
C770        H774   1.110       .  S
C770        H775   1.109       .  S
C770        H776   1.111       .  S
C777        C778   1.401       .  A
C777        C782   1.407       .  A
C777        H784   1.084       .  S
C778        C779   1.406       .  A
C779        C780   1.394       .  A
C779        C786   1.511       .  S
C780        C781   1.407       .  A
C780        H785   1.084       .  S
C781        C782   1.418       .  A
C782        C783   1.506       .  S
C783        H787   1.111       .  S
C783        H788   1.111       .  S
C783        H789   1.110       .  S
C786        H790   1.110       .  S
C786        H791   1.109       .  S
C786        H792   1.111       .  S
C793        C794   1.405       .  A
C793        C798   1.407       .  A
C793        H800   1.087       .  S
C794        C795   1.412   1_545  A
C795        C796   1.401   1_565  A
C795        C802   1.508       .  S
C796        C797   1.405       .  A
C796        H801   1.086       .  S
C797        C798   1.414       .  A
C798        C799   1.506       .  S
C799        H803   1.111       .  S
C799        H804   1.111       .  S
C799        H805   1.109       .  S
C802        H806   1.109       .  S
C802        H807   1.111       .  S
C802        H808   1.111       .  S
C809        C810   1.404       .  A
C809        C814   1.401       .  A
C809        H816   1.084       .  S
C810        C811   1.418       .  A
C811        C812   1.409       .  A
C811        C818   1.507       .  S
C812        C813   1.406       .  A
C812        H817   1.084       .  S
C813        C814   1.420       .  A
C814        C815   1.510       .  S
C815        H819   1.111       .  S
C815        H820   1.110       .  S
C815        H821   1.111       .  S
C818        H822   1.110       .  S
C818        H823   1.110       .  S
C818        H824   1.111       .  S
C825        C826   1.401       .  A
C825        C830   1.406       .  A
C825        H832   1.084       .  S
C826        C827   1.409       .  A
C827        C828   1.394       .  A
C827        C834   1.511       .  S
C828        C829   1.404       .  A
C828        H833   1.084       .  S
C829        C830   1.416       .  A
C830        C831   1.506       .  S
C831        H835   1.111       .  S
C831        H836   1.111       .  S
C831        H837   1.110       .  S
C834        H838   1.110       .  S
C834        H839   1.109       .  S
C834        H840   1.111       .  S
C841        C842   1.406   1_565  A
C841        H848   1.084       .  S
C842        C843   1.421       .  A
C843        C850   1.507       .  S
C844        C845   1.400       .  A
C844        H849   1.084       .  S
C845        C846   1.410       .  A
C846        C847   1.509   1_545  S
C847        H851   1.111       .  S
C847        H852   1.111   1_565  S
C847        H853   1.110       .  S
C850        H854   1.109       .  S
C850        H855   1.111       .  S
C850        H856   1.111       .  S
C857        C858   1.407       .  A
C857        C862   1.410       .  A
C857        H864   1.084       .  S
C858        C859   1.420       .  A
C859        C860   1.402       .  A
C859        C866   1.510       .  S
C860        C861   1.405       .  A
C860        H865   1.084       .  S
C861        C862   1.418       .  A
C862        C863   1.507       .  S
C863        H867   1.111       .  S
C863        H868   1.110       .  S
C863        H869   1.110       .  S
C866        H870   1.110       .  S
C866        H871   1.110       .  S
C866        H872   1.111       .  S
C873        C874   1.405       .  A
C873        C878   1.406       .  A
C873        H880   1.084       .  S
C874        C875   1.417       .  A
C875        C876   1.395       .  A
C875        C882   1.511       .  S
C876        C877   1.399       .  A
C876        H881   1.085       .  S
C877        C878   1.411       .  A
C878        C879   1.506       .  S
C879        H883   1.111       .  S
C879        H884   1.110   1_545  S
C879        H885   1.110       .  S
C882        H886   1.111       .  S
C882        H887   1.109       .  S
C882        H888   1.111       .  S
C889        C890   1.398       .  A
C889        H896   1.085       .  S
C890        C891   1.407       .  A
C891        C898   1.504   1_545  S
C892        C893   1.410       .  A
C892        H897   1.084       .  S
C893        C894   1.421       .  A
C894        C895   1.510       .  S
C895        H899   1.111   1_556  S
C895        H900   1.109       .  S
C895        H901   1.111       .  S
C898        H902   1.111       .  S
C898        H903   1.110       .  S
C905        C906   1.409       .  A
C905        C910   1.404       .  A
C905        H912   1.084       .  S
C906        C907   1.415   1_545  A
C907        C908   1.405   1_565  A
C907        C914   1.507       .  S
C908        C909   1.408       .  A
C908        H913   1.084   1_545  S
C909        C910   1.415       .  A
C910        C911   1.508       .  S
C911        H915   1.111       .  S
C911        H916   1.110       .  S
C911        H917   1.110       .  S
C914        H918   1.110       .  S
C914        H919   1.110       .  S
C914        H920   1.111       .  S
C921        C922   1.405       .  A
C921        C926   1.407       .  A
C921        H928   1.086       .  S
C922        C923   1.413       .  A
C923        C924   1.404       .  A
C923        C930   1.508       .  S
C924        C925   1.406       .  A
C924        H929   1.086       .  S
C925        C926   1.414       .  A
C926        C927   1.506       .  S
C927        H931   1.111       .  S
C927        H932   1.109       .  S
C927        H933   1.111       .  S
C930        H934   1.111       .  S
C930        H935   1.109       .  S
C930        H936   1.111       .  S
C937        C938   1.407       .  A
C937        C942   1.407       .  A
C937        H944   1.084       .  S
C938        C939   1.416       .  A
C939        C940   1.404       .  A
C939        C946   1.508       .  S
C940        C941   1.406       .  A
C940        H945   1.084       .  S
C941        C942   1.414       .  A
C942        C943   1.507       .  S
C943        H947   1.111       .  S
C943        H948   1.109       .  S
C943        H949   1.111       .  S
C946        H950   1.111       .  S
C946        H951   1.109       .  S
C946        H952   1.111       .  S
C953        C954   1.408       .  A
C953        C958   1.403       .  A
C953        H960   1.083       .  S
C954        C955   1.416   1_455  A
C955        C956   1.404       .  A
C955        C962   1.508       .  S
C956        C957   1.407   1_655  A
C956        H961   1.084       .  S
C957        C958   1.415       .  A
C958        C959   1.508       .  S
C959        H963   1.111       .  S
C959        H964   1.110       .  S
C959        H965   1.110       .  S
C962        H966   1.110       .  S
C962        H967   1.110       .  S
C962        H968   1.111       .  S
C969        C970   1.405       .  A
C969        C974   1.409       .  A
C969        H976   1.084       .  S
C971        C972   1.399       .  A
C971        C978   1.508       .  S
C972        C973   1.402       .  A
C972        H977   1.084       .  S
C974        C975   1.507       .  S
C975        H979   1.111       .  S
C975        H980   1.111       .  S
C975        H981   1.109   1_556  S
C978        H982   1.110       .  S
C978        H983   1.105       .  S
C978        H984   1.111       .  S
C985        C986   1.398       .  A
C985        C990   1.403       .  A
C985        H992   1.085       .  S
C986        C987   1.408   1_455  A
C987        C988   1.407   1_655  A
C987        C994   1.506       .  S
C988        C989   1.410       .  A
C988        H993   1.084   1_455  S
C989        C990   1.422       .  A
C990        C991   1.509       .  S
C991        H995   1.111       .  S
C991        H996   1.110       .  S
C991        H997   1.110       .  S
C994        H998   1.111       .  S
C994        H999   1.110       .  S
C994       H1000   1.111       .  S
C1001      C1002   1.396       .  A
C1001      C1006   1.400       .  A
C1001      H1008   1.084       .  S
C1002      C1003   1.410   1_455  A
C1003      C1004   1.402   1_655  A
C1003      C1010   1.503       .  S
C1004      C1005   1.403       .  A
C1004      H1009   1.083   1_455  S
C1005      C1006   1.422       .  A
C1006      C1007   1.510       .  S
C1007      H1011   1.111       .  S
C1007      H1012   1.110       .  S
C1007      H1013   1.110       .  S
C1010      H1014   1.110       .  S
C1010      H1015   1.107       .  S
C1010      H1016   1.111       .  S
C1017      C1018   1.401       .  A
C1017      C1022   1.408       .  A
C1017      H1024   1.084       .  S
C1019      C1020   1.402       .  A
C1019      C1026   1.509       .  S
C1020      C1021   1.400       .  A
C1020      H1025   1.085       .  S
C1022      C1023   1.507       .  S
C1023      H1027   1.111       .  S
C1023      H1028   1.110       .  S
C1023      H1029   1.109       .  S
C1026      H1030   1.109       .  S
C1026      H1031   1.109       .  S
C1026      H1032   1.111       .  S
C1033      C1034   1.409   1_655  A
C1033      C1038   1.405       .  A
C1033      H1040   1.084       .  S
C1034      C1035   1.415       .  A
C1035      C1036   1.404       .  A
C1035      C1042   1.507       .  S
C1036      C1037   1.406   1_455  A
C1036      H1041   1.085       .  S
C1037      C1038   1.412       .  A
C1038      C1039   1.507       .  S
C1039      H1044   1.110       .  S
C1042      H1046   1.111       .  S
C1042      H1047   1.110       .  S
C1042      H1048   1.111       .  S
C1049      C1050   1.401       .  A
C1049      C1054   1.411       .  A
C1049      H1056   1.084       .  S
C1050      C1051   1.409       .  A
C1051      C1052   1.398   1_455  A
C1051      C1058   1.510       .  S
C1052      C1053   1.405       .  A
C1052      H1057   1.084       .  S
C1053      C1054   1.418   1_655  A
C1054      C1055   1.506       .  S
C1055      H1059   1.111       .  S
C1055      H1060   1.109       .  S
C1055      H1061   1.110   1_455  S
C1058      H1062   1.110       .  S
C1058      H1063   1.110   1_455  S
C1058      H1064   1.111   1_455  S
C1065      C1066   1.407       .  A
C1065      C1070   1.402   1_455  A
C1065      H1072   1.084   1_455  S
C1066      C1067   1.423       .  A
C1067      C1068   1.400       .  A
C1067      C1074   1.510       .  S
C1068      C1069   1.395       .  A
C1068      H1073   1.085       .  S
C1069      C1070   1.407   1_455  A
C1070      C1071   1.507       .  S
C1071      H1075   1.111       .  S
C1071      H1076   1.110       .  S
C1071      H1077   1.110       .  S
C1074      H1078   1.110       .  S
C1074      H1079   1.110       .  S
C1074      H1080   1.111       .  S
