geometry optimzed in LAMMPS
_audit_creation_date              2020-12-01 
_audit_creation_method            'lammps2cif' 
_symmetry_space_group_name_H-M    'P1' 
_symmetry_Int_Tables_number       1 
_symmetry_cell_setting            triclinic 
loop_ 
_symmetry_equiv_pos_as_xyz 
  x,y,z 
_cell_length_a                    32.31610931 
_cell_length_b                    32.15608516518458 
_cell_length_c                    42.67031640717118 
_cell_angle_alpha                 89.74583230824007 
_cell_angle_beta                  90.29065966778187 
_cell_angle_gamma                 90.67465330770024 
loop_ 
_atom_site_label 
_atom_site_type_symbol 
_atom_site_fract_x 
_atom_site_fract_y 
_atom_site_fract_z 
_atom_site_charge 
O1          O  0.02411283  0.24445119  0.89864614    -0.82500
C2          C  0.87695040  0.15938617  0.90631371     0.96800
O3          O  0.88956718  0.19648685  0.90755551    -0.71700
O4          O  0.94258356  0.25279927  0.92429596    -0.75300
Al5        Al  0.93336930  0.22213465  0.88602128     1.49000
C6          C  0.95970630  0.24293735  0.95000629     0.92100
O7          O  0.01540230  0.14044305  0.93954591    -0.81500
O8          O  0.01246568  0.11319530  0.87569743    -0.75000
Al9        Al  0.01423172  0.19161365  0.91680412     1.90100
O10         O  0.95858179  0.10801148  0.92525323    -0.74100
O11         O  0.95215837  0.14335133  0.84149050    -0.74000
O12         O  0.89694550  0.13263089  0.89104617    -0.79600
O13         O  0.91548281  0.19994501  0.84595417    -0.77800
O14         O  0.96781661  0.18085885  0.89561825    -1.13900
O15         O  0.97473928  0.25299677  0.86375378    -0.73100
C16         C  0.01001430  0.26238226  0.87462743     0.97600
C17         C  0.98959131  0.11109293  0.94300464     0.94000
Al18       Al  0.95589979  0.12883791  0.88410252     1.55600
O19         O  0.98587286  0.21426610  0.95123973    -0.77800
C20         C  0.92958517  0.17076849  0.82952107     0.98100
C21         C  0.04593389  0.13400746  0.87436620     0.93000
O22         O  0.04770430  0.17051875  0.88481362    -0.83100
O23         O  0.77769034  0.98975698  0.59446785    -0.82500
C24         C  0.86740117  0.13627563  0.58942372     0.96800
O25         O  0.83310119  0.13333110  0.60384502    -0.71700
O26         O  0.77459735  0.09797827  0.57317737    -0.75300
Al27       Al  0.79791411  0.08548314  0.61214908     1.49000
C28         C  0.77062951  0.07947369  0.54760830     0.92100
O29         O  0.86246133  0.02484557  0.54023252    -0.81500
O30         O  0.88856837  0.00024790  0.62882203    -0.75000
Al31       Al  0.82111771  0.01020700  0.56983332     1.90100
O32         O  0.91317316  0.03169837  0.57344798    -0.74100
O33         O  0.88052136  0.08034070  0.64853640    -0.74000
O34         O  0.89274949  0.10660297  0.58931899    -0.79600
O35         O  0.81410002  0.08110297  0.65492570    -0.77800
O36         O  0.83535751  0.04972139  0.59732833    -1.13900
O37         O  0.75638829  0.04340536  0.62132711    -0.73100
C38         C  0.75263424  0.00568258  0.61326349     0.97600
C39         C  0.90050370  0.02701869  0.54591547     0.94000
Al40       Al  0.88862319  0.05437932  0.60927497     1.55600
O41         O  0.78525527  0.04364427  0.54432778    -0.77800
C42         C  0.84987029  0.08787050  0.66537371     0.98100
C43         C  0.87797367  0.96729276  0.61418312     0.93000
O44         O  0.85492493  0.96899383  0.58997498    -0.83100
O45         O  0.96265997  0.84688535  0.10574452    -0.82500
C46         C  0.13330079  0.87456624  0.08773718     0.96800
O47         O  0.10990919  0.89969005  0.10176468    -0.71700
O48         O  0.04779351  0.91501677  0.06586930    -0.75300
Al49       Al  0.05034769  0.89723953  0.10742019     1.49000
C50         C  0.01801148  0.90886654  0.04744770     0.92100
O51         O  0.03211386  0.80569103  0.04238314    -0.81500
O52         O  0.04529768  0.77233673  0.13051198    -0.75000
Al53       Al  0.00006790  0.82729426  0.07545572     1.90100
O54         O  0.07890883  0.77404204  0.07097653    -0.74100
O55         O  0.09711166  0.83333359  0.14851191    -0.74000
O56         O  0.12462057  0.83645368  0.08716458    -0.79600
O57         O  0.05390072  0.88532098  0.15043812    -0.77800
O58         O  0.04440065  0.84382931  0.09727015    -1.13900
O59         O  0.99148158  0.90782126  0.11377438    -0.73100
C60         C  0.95965188  0.88433129  0.11396754     0.97600
C61         C  0.06122237  0.78010578  0.04482374     0.94000
Al62       Al  0.08319000  0.80723846  0.10853252     1.55600
O63         O  0.99470892  0.87732601  0.05072054    -0.77800
C64         C  0.07952127  0.86183651  0.16374429     0.98100
C65         C  0.01240553  0.75737616  0.11887877     0.93000
O66         O  0.99530144  0.77424220  0.09543072    -0.83100
O67         O  0.16082115  0.06067689  0.38258962    -0.82500
C68         C  0.15203784  0.88991340  0.41045228     0.96800
O69         O  0.12433344  0.90924550  0.39537885    -0.71700
O70         O  0.09778205  0.97349434  0.42424355    -0.75300
Al71       Al  0.12008378  0.96739719  0.38415441     1.49000
C72         C  0.09999544  0.00545788  0.44083233     0.92100
O73         O  0.20196268  0.00093889  0.45185111    -0.81500
O74         O  0.24543563  0.98958563  0.36558560    -0.75000
Al75       Al  0.18094084  0.02857110  0.41614342     1.90100
O76         O  0.24266933  0.95819557  0.42669938    -0.74100
O77         O  0.19358739  0.92720760  0.34773539    -0.74000
O78         O  0.18903662  0.90265311  0.40994671    -0.79600
O79         O  0.13436737  0.95865004  0.34220650    -0.77800
O80         O  0.17163485  0.98104291  0.39581137    -1.13900
O81         O  0.10486453  0.02376286  0.37201683    -0.73100
C82         C  0.12491740  0.05797570  0.37101095     0.97600
C83         C  0.23084598  0.97496503  0.45186499     0.94000
Al84       Al  0.21404341  0.94727482  0.38787266     1.55600
O85         O  0.12927569  0.03111982  0.43737284    -0.77800
C86         C  0.16204485  0.93575960  0.33134507     0.98100
C87         C  0.25441698  0.02489533  0.37700523     0.93000
O88         O  0.23446419  0.03864280  0.39993010    -0.83100
O89         O  0.26752819  0.02040171  0.89718863    -0.82500
C90         C  0.36253449  0.88000993  0.90293556     0.96800
O91         O  0.32562708  0.88982194  0.90794420    -0.71700
O92         O  0.26586430  0.93759220  0.92530049    -0.75300
Al93       Al  0.29489421  0.93017878  0.88637527     1.49000
C94         C  0.27419125  0.95795801  0.94987605     0.92100
O95         O  0.37515870  0.01817847  0.93641251    -0.81500
O96         O  0.39877948  0.01947022  0.87342111    -0.75000
Al97       Al  0.32202430  0.01492210  0.91456908     1.90100
O98         O  0.40604655  0.96157082  0.92038135    -0.74100
O99         O  0.36681319  0.95993542  0.83836104    -0.74000
O100        O  0.38413114  0.90126947  0.88397378    -0.79600
O101        O  0.31630975  0.91430845  0.84530879    -0.77800
O102        O  0.33349372  0.96901553  0.89358637    -1.13900
O103        O  0.25917032  0.96727395  0.86521430    -0.73100
C104        C  0.24715592  0.00152088  0.87605654     0.97600
C105        C  0.40350070  0.99134412  0.93914318     0.94000
Al106      Al  0.38463965  0.96123525  0.87994599     1.55600
O107        O  0.30190126  0.98575852  0.94997156    -0.77800
C108        C  0.34193809  0.93315690  0.82757526     0.98100
C109        C  0.37678605  0.05173050  0.87214750     0.93000
O110        O  0.34008393  0.05022684  0.88175008    -0.83100
O111        O  0.51912936  0.79631888  0.59682656    -0.82500
C112        C  0.36960745  0.87976345  0.58473807     0.96800
O113        O  0.37256762  0.84449050  0.59814969    -0.71700
O114        O  0.41155806  0.79110919  0.56538722    -0.75300
Al115      Al  0.42063532  0.81002859  0.60609792     1.49000
C116        C  0.43467354  0.78579004  0.54230367     0.92100
O117        O  0.48722129  0.87892593  0.53940106    -0.81500
O118        O  0.49996661  0.90385111  0.62943798    -0.75000
Al119      Al  0.50011901  0.83807265  0.57012499     1.90100
O120        O  0.47500103  0.92884020  0.57220778    -0.74100
O121        O  0.42135642  0.89019619  0.64432303    -0.74000
O122        O  0.39963696  0.90515573  0.58447717    -0.79600
O123        O  0.42313555  0.82300699  0.64964279    -0.77800
O124        O  0.45691496  0.84965227  0.59441259    -1.13900
O125        O  0.46192792  0.76806684  0.61488636    -0.73100
C126        C  0.50089040  0.76775605  0.61168746     0.97600
C127        C  0.48460041  0.91707128  0.54523335     0.94000
Al128      Al  0.44946274  0.90215385  0.60667858     1.55600
O129        O  0.47163771  0.79895446  0.54293522    -0.77800
C130        C  0.41597987  0.85824601  0.66085794     0.98100
C131        C  0.53465947  0.89748480  0.61679343     0.93000
O132        O  0.53747147  0.87515350  0.59239056    -0.83100
O133        O  0.65238018  0.97526037  0.10205889    -0.82500
C134        C  0.64910973  0.14823427  0.08146699     0.96800
O135        O  0.62331328  0.12833623  0.09787603    -0.71700
O136        O  0.60117572  0.07107274  0.05889461    -0.75300
Al137      Al  0.61725949  0.06911876  0.10097185     1.49000
C138        C  0.60191030  0.04018818  0.04103332     0.92100
O139        O  0.70401437  0.03640660  0.03654726    -0.81500
O140        O  0.74180950  0.04947799  0.12242893    -0.75000
Al141      Al  0.67786721  0.00890294  0.07044348     1.90100
O142        O  0.74020128  0.08311906  0.06283230    -0.74100
O143        O  0.68701698  0.10571807  0.14189940    -0.74000
O144        O  0.68563521  0.13572157  0.07963199    -0.79600
O145        O  0.62940278  0.06845978  0.14370690    -0.77800
O146        O  0.66890204  0.05600700  0.09104844    -1.13900
O147        O  0.59701515  0.01318137  0.10618406    -0.73100
C148        C  0.61481535  0.97869816  0.10955107     0.97600
C149        C  0.73189102  0.06408318  0.03762461     0.94000
Al150      Al  0.71022995  0.09075559  0.10112689     1.55600
O151        O  0.62709975  0.01079323  0.04578723    -0.77800
C152        C  0.65674385  0.09021114  0.15715086     0.98100
C153        C  0.75182741  0.01457727  0.11146722     0.93000
O154        O  0.73023400  0.99768472  0.09010023    -0.83100
O155        O  0.47031689  0.17121926  0.38596881    -0.82500
C156        C  0.64282204  0.16100575  0.40077623     0.96800
O157        O  0.62202017  0.13569923  0.38437723    -0.71700
O158        O  0.56253302  0.11078731  0.42113539    -0.75300
Al159      Al  0.56312319  0.13192142  0.37990476     1.49000
C160        C  0.53451310  0.11558212  0.44106448     0.92100
O161        O  0.54272729  0.21980307  0.44802702    -0.81500
O162        O  0.54606314  0.25653348  0.35950127    -0.75000
Al163      Al  0.50917089  0.19545183  0.41524394     1.90100
O164        O  0.58257709  0.25731546  0.41757980    -0.74100
O165        O  0.60344870  0.20175387  0.34073320    -0.74000
O166        O  0.63235690  0.19861395  0.40229802    -0.79600
O167        O  0.56509179  0.14551643  0.33701906    -0.77800
O168        O  0.55300825  0.18413238  0.39163311    -1.13900
O169        O  0.50677881  0.11670581  0.37347962    -0.73100
C170        C  0.47251903  0.13503636  0.37445650     0.97600
C171        C  0.57044659  0.24745532  0.44465069     0.94000
Al172      Al  0.58814795  0.22500563  0.38063932     1.55600
O173        O  0.51008382  0.14569754  0.43923397    -0.77800
C174        C  0.58985755  0.17133180  0.32491871     0.98100
C175        C  0.51238854  0.26720282  0.37221612     0.93000
O176        O  0.49866410  0.24784969  0.39592571    -0.83100
O177        O  0.48463258  0.29062662  0.87700828    -0.82500
C178        C  0.63092852  0.37872239  0.90695504     0.96800
O179        O  0.63001420  0.34518641  0.89169491    -0.71700
O180        O  0.58625625  0.29520448  0.92638030    -0.75300
Al181      Al  0.58366497  0.30914112  0.88334318     1.49000
C182        C  0.55655322  0.28491579  0.94388852     0.92100
O183        O  0.50243792  0.37307372  0.93969902    -0.81500
O184        O  0.50806456  0.40281768  0.85057781    -0.75000
Al185      Al  0.49681247  0.33286665  0.90700729     1.90100
O186        O  0.52452693  0.42431270  0.91017372    -0.74100
O187        O  0.58857088  0.38749678  0.84301953    -0.74000
O188        O  0.60113090  0.40354839  0.90541640    -0.79600
O189        O  0.58558212  0.31947808  0.83937672    -0.77800
O190        O  0.54478070  0.34717209  0.88926193    -1.13900
O191        O  0.54648081  0.26393364  0.87482249    -0.73100
C192        C  0.50786292  0.26045886  0.87093116     0.97600
C193        C  0.50958964  0.41133713  0.93553312     0.94000
Al194      Al  0.55491978  0.39993295  0.87808346     1.55600
O195        O  0.51969925  0.29318438  0.93613808    -0.77800
C196        C  0.59393730  0.35466254  0.82762577     0.98100
C197        C  0.47139577  0.39505709  0.85947276     0.93000
O198        O  0.46451405  0.37000526  0.88190656    -0.83100
O199        O  0.71437967  0.54639583  0.60495394    -0.82500
C200        C  0.63611182  0.39062682  0.58667869     0.96800
O201        O  0.67264265  0.39537923  0.59717366    -0.71700
O202        O  0.71930320  0.44097172  0.56169720    -0.75300
Al203      Al  0.70575349  0.44524544  0.60451283     1.49000
C204        C  0.72662414  0.46967444  0.54237322     0.92100
O205        O  0.63431397  0.51431483  0.54499039    -0.81500
O206        O  0.60938957  0.51884252  0.63506586    -0.75000
Al207      Al  0.67406659  0.52772679  0.57620930     1.90100
O208        O  0.58525775  0.49349585  0.57694545    -0.74100
O209        O  0.62985065  0.44108536  0.64827029    -0.74000
O210        O  0.61014650  0.41922554  0.58879537    -0.79600
O211        O  0.69758197  0.44417896  0.64865776    -0.77800
O212        O  0.66452699  0.48070705  0.59749112    -1.13900
O213        O  0.74759894  0.48799424  0.61215244    -0.73100
C214        C  0.74613730  0.52732591  0.61400996     0.97600
C215        C  0.59681899  0.50569268  0.55026731     0.94000
Al216      Al  0.61334232  0.46903888  0.61124452     1.55600
O217        O  0.71531475  0.50628163  0.54813166    -0.77800
C218        C  0.66385914  0.43661192  0.66225369     0.98100
C219        C  0.61328762  0.55462306  0.62304366     0.93000
O220        O  0.63516859  0.56023260  0.59888823    -0.83100
O221        O  0.33398982  0.46647275  0.38653861    -0.82500
C222        C  0.36638717  0.63708632  0.40213671     0.96800
O223        O  0.38853161  0.61412575  0.38520717    -0.71700
O224        O  0.40637581  0.55099058  0.41974342    -0.75300
Al225      Al  0.38426350  0.55471963  0.37947319     1.49000
C226        C  0.39937764  0.52381801  0.44027286     0.92100
O227        O  0.29696627  0.54150433  0.44914179    -0.81500
O228        O  0.25936016  0.55223905  0.36127788    -0.75000
Al229      Al  0.31607371  0.50675506  0.41598151     1.90100
O230        O  0.26382739  0.58585326  0.41969116    -0.74100
O231        O  0.31994770  0.60505328  0.34322952    -0.74000
O232        O  0.32806546  0.62989326  0.40447786    -0.79600
O233        O  0.36874187  0.55941323  0.33712511    -0.77800
O234        O  0.33206225  0.54992847  0.39248662    -1.13900
O235        O  0.39217299  0.49647452  0.37229619    -0.73100
C236        C  0.36961763  0.46425822  0.37462376     0.97600
C237        C  0.27249816  0.57155590  0.44637467     0.94000
Al238      Al  0.29593836  0.58980573  0.38272044     1.55600
O239        O  0.36658566  0.50211736  0.43948699    -0.77800
C240        C  0.34720795  0.58860707  0.32644328     0.98100
C241        C  0.24470656  0.51924816  0.37353019     0.93000
O242        O  0.26235758  0.50228271  0.39683641    -0.83100
O243        O  0.54754570  0.67090818  0.09554708    -0.82500
C244        C  0.37660380  0.64883051  0.08825085     0.96800
O245        O  0.39957663  0.62323544  0.10255486    -0.71700
O246        O  0.45679535  0.60311171  0.06426964    -0.75300
Al247      Al  0.45926598  0.62316434  0.10521083     1.49000
C248        C  0.48327571  0.60914797  0.04338697     0.92100
O249        O  0.46900126  0.71216137  0.03754065    -0.81500
O250        O  0.47394798  0.74715131  0.12682194    -0.75000
Al251      Al  0.50633425  0.69081991  0.06800907     1.90100
O252        O  0.43186232  0.74815960  0.07041208    -0.74100
O253        O  0.41974116  0.68908243  0.14779118    -0.74000
O254        O  0.38542471  0.68709834  0.08832463    -0.79600
O255        O  0.46110428  0.63587749  0.14774094    -0.77800
O256        O  0.46563329  0.67613251  0.09372330    -1.13900
O257        O  0.51769993  0.61196868  0.10921910    -0.73100
C258        C  0.54972629  0.63491624  0.10730333     0.97600
C259        C  0.44177315  0.73901934  0.04269856     0.94000
Al260      Al  0.43059481  0.71463091  0.10750936     1.55600
O261        O  0.50680541  0.64065764  0.04422443    -0.77800
C262        C  0.43745466  0.65972299  0.16208676     0.98100
C263        C  0.50550520  0.76010308  0.11199959     0.93000
O264        O  0.51577909  0.74385164  0.08633042    -0.83100
O265        O  0.23882618  0.48833684  0.89544849    -0.82500
C266        C  0.16222304  0.63871240  0.91313045     0.96800
O267        O  0.19876913  0.62568232  0.91235734    -0.71700
O268        O  0.25227448  0.56976435  0.92573588    -0.75300
Al269      Al  0.22162964  0.58208089  0.88828237     1.49000
C270        C  0.24315056  0.55008655  0.95052077     0.92100
O271        O  0.13778365  0.49728323  0.93958278    -0.81500
O272        O  0.10791339  0.50883271  0.87728087    -0.75000
Al273      Al  0.18770614  0.49861973  0.91543480     1.90100
O274        O  0.10929552  0.55723378  0.92959593    -0.74100
O275        O  0.13876661  0.57025949  0.84521805    -0.74000
O276        O  0.13447986  0.62090512  0.89705070    -0.79600
O277        O  0.19891083  0.60243378  0.84867125    -0.77800
O278        O  0.17907989  0.54776640  0.89697659    -1.13900
O279        O  0.25142264  0.54142323  0.86437051    -0.73100
C280        C  0.25920971  0.50478201  0.87342434     0.97600
C281        C  0.11034737  0.52387276  0.94505372     0.94000
Al282      Al  0.12735916  0.56305481  0.88789743     1.55600
O283        O  0.21444895  0.52314230  0.95075767    -0.77800
C284        C  0.16733524  0.59133760  0.83288721     0.98100
C285        C  0.12474879  0.47406170  0.87335660     0.93000
O286        O  0.16159465  0.46831121  0.88229855    -0.83100
O287        O  0.98670216  0.73069873  0.60641297    -0.82500
C288        C  0.13330539  0.63930785  0.58750952     0.96800
O289        O  0.13232157  0.67625407  0.59761020    -0.71700
O290        O  0.09181440  0.72949621  0.56354131    -0.75300
Al291      Al  0.08676049  0.71277805  0.60645992     1.49000
C292        C  0.06352664  0.73947014  0.54465281     0.92100
O293        O  0.01091617  0.64868512  0.54560657    -0.81500
O294        O  0.00286724  0.62071993  0.63509262    -0.75000
Al295      Al  0.00138738  0.68875493  0.57749180     1.90100
O296        O  0.02694684  0.59711907  0.57692760    -0.74100
O297        O  0.08149488  0.63408480  0.64945060    -0.74000
O298        O  0.10247011  0.61543042  0.59001208    -0.79600
O299        O  0.08885171  0.70163189  0.65095584    -0.77800
O300        O  0.04704366  0.67469642  0.59886443    -1.13900
O301        O  0.04856365  0.75733906  0.61535625    -0.73100
C302        C  0.00940525  0.76043200  0.61581336     0.97600
C303        C  0.01693393  0.61044351  0.55022896     0.94000
Al304      Al  0.05302008  0.62185459  0.61187528     1.55600
O305        O  0.02664397  0.72890036  0.55022689    -0.77800
C306        C  0.09167798  0.66645369  0.66409095     0.98100
C307        C  0.96794501  0.62816183  0.62308716     0.93000
O308        O  0.96492078  0.65176461  0.59947256    -0.83100
O309        O  0.03741156  0.34962051  0.38257510    -0.82500
C310        C  0.86892147  0.37131781  0.41146351     0.96800
O311        O  0.89050984  0.39686685  0.39569422    -0.71700
O312        O  0.95667291  0.41619557  0.42646033    -0.75300
Al313      Al  0.94900816  0.39639106  0.38590530     1.49000
C314        C  0.98852018  0.41173536  0.44296262     0.92100
O315        O  0.97782137  0.30829492  0.45194521    -0.81500
O316        O  0.95436898  0.26952025  0.36688256    -0.75000
Al317      Al  0.00478239  0.32985340  0.41609326     1.90100
O318        O  0.92756400  0.27419372  0.42816377    -0.74100
O319        O  0.90038252  0.32742403  0.35031033    -0.74000
O320        O  0.87871840  0.33364017  0.41265407    -0.79600
O321        O  0.93963163  0.38290000  0.34377624    -0.77800
O322        O  0.95751174  0.34349800  0.39713823    -1.13900
O323        O  0.00639479  0.40893637  0.37491531    -0.73100
C324        C  0.03846112  0.38673461  0.37301944     0.97600
C325        C  0.94878897  0.28182906  0.45248356     0.94000
Al326      Al  0.91855025  0.30462785  0.38991854     1.55600
O327        O  0.01191160  0.38103448  0.43893403    -0.77800
C328        C  0.91347315  0.35709399  0.33333751     0.98100
C329        C  0.98914187  0.25697170  0.37630902     0.93000
O330        O  0.00867074  0.27615715  0.39759156    -0.83100
O331        O  0.84652650  0.55041724  0.10958078    -0.82500
C332        C  0.86443528  0.38064161  0.08478470     0.96800
O333        O  0.89106688  0.40206309  0.09966194    -0.71700
O334        O  0.91140724  0.46595407  0.06619810    -0.75300
Al335      Al  0.89249134  0.46141980  0.10747054     1.49000
C336        C  0.90847358  0.49810780  0.04963843     0.92100
O337        O  0.80696067  0.48802397  0.04143975    -0.81500
O338        O  0.76688816  0.47239705  0.12785135    -0.75000
Al339      Al  0.82757591  0.51709182  0.07639742     1.90100
O340        O  0.77022592  0.44118901  0.06736516    -0.74100
O341        O  0.82317194  0.41761282  0.14661473    -0.74000
O342        O  0.82713573  0.39101743  0.08479417    -0.79600
O343        O  0.87970313  0.45592224  0.14973727    -0.77800
O344        O  0.84001227  0.47056733  0.09679955    -1.13900
O345        O  0.90589480  0.51939457  0.11678941    -0.73100
C346        C  0.88332819  0.55125424  0.11940249     0.97600
C347        C  0.77911170  0.46026437  0.04214638     0.94000
Al348      Al  0.80030793  0.43343406  0.10609413     1.55600
O349        O  0.87926766  0.52315246  0.05413602    -0.77800
C350        C  0.85263643  0.43332809  0.16247366     0.98100
C351        C  0.75437093  0.50598244  0.11592695     0.93000
O352        O  0.77363517  0.52268980  0.09343429    -0.83100
C353        C  0.89680440  0.36355178  0.30142038    -0.06000
C354        C  0.87982613  0.33070820  0.28376542    -0.05900
C355        C  0.86478489  0.33790153  0.25334160    -0.24100
C356        C  0.86607564  0.37813036  0.24034552     0.18100
C357        C  0.88202341  0.41138908  0.25852456     0.15400
C358        C  0.89725162  0.40387261  0.28870515    -0.19100
C359        C  0.88356255  0.45163409  0.24601126    -0.20900
C360        C  0.87149014  0.45865978  0.21513929    -0.13500
C361        C  0.85707891  0.42576779  0.19633220     0.03200
C362        C  0.85316579  0.38563403  0.20925320    -0.25600
H363        H  0.87888726  0.29943237  0.29327445     0.08300
H364        H  0.85262482  0.31198319  0.23987233     0.11900
H365        H  0.90957796  0.42960333  0.30235669     0.11800
H366        H  0.89543509  0.47745301  0.25975047     0.11500
H367        H  0.87468358  0.48977599  0.20551345     0.12100
H368        H  0.84255638  0.36009402  0.19466782     0.14000
C369        C  0.01134449  0.57982641  0.52505927    -0.06000
C370        C  0.98520148  0.58774290  0.49946798    -0.05900
C371        C  0.97589736  0.55616730  0.47810717    -0.24100
C372        C  0.99287141  0.51649200  0.48205917     0.18100
C373        C  0.02074264  0.50888747  0.50693769     0.07400
C374        C  0.02989043  0.54064242  0.52817554    -0.19100
C375        C  0.03826758  0.46940769  0.51056473    -0.20900
C376        C  0.02777727  0.43742371  0.48985708    -0.13500
C377        C  0.99930769  0.44448771  0.46556446     0.03200
C378        C  0.98213220  0.48419427  0.46172111    -0.25600
H379        H  0.97069997  0.61774069  0.49671040     0.08300
H380        H  0.95475377  0.56248436  0.45892454     0.11900
H381        H  0.05066641  0.53450428  0.54765438     0.11800
H382        H  0.05987506  0.46324591  0.52947738     0.11500
H383        H  0.04160571  0.40715417  0.49295988     0.12100
H384        H  0.96070203  0.49017676  0.44263067     0.14000
C385        C  0.94129292  0.50755483  0.02666375    -0.06000
C386        C  0.94077472  0.54457908  0.00910254    -0.05900
C387        C  0.97422750  0.55545760  0.99002002    -0.24100
C388        C  0.00879216  0.52959956  0.98836567     0.18100
C389        C  0.00927823  0.49193947  0.00549693     0.15400
C390        C  0.97548147  0.48104406  0.02431432    -0.19100
C391        C  0.04375855  0.46600734  0.00380697    -0.20900
C392        C  0.07739351  0.47711512  0.98501898    -0.13500
C393        C  0.07716523  0.51442526  0.96773914     0.03200
C394        C  0.04278057  0.54069060  0.96975967    -0.25600
H395        H  0.91491332  0.56557566  0.01063234     0.08300
H396        H  0.97332705  0.58437611  0.97691360     0.11900
H397        H  0.97638181  0.45239116  0.03778530     0.11800
H398        H  0.04456811  0.43699389  0.01680444     0.11500
H399        H  0.10327624  0.45612762  0.98358897     0.12100
H400        H  0.04195654  0.56932357  0.95626720     0.14000
C401        C  0.16278288  0.60206322  0.79943367    -0.06000
C402        C  0.16375805  0.56990874  0.77738436    -0.05900
C403        C  0.15157145  0.57691292  0.74638273    -0.24100
C404        C  0.13741086  0.61613252  0.73698744     0.18100
C405        C  0.13688565  0.64908961  0.75877258     0.15400
C406        C  0.14979365  0.64187183  0.78998844    -0.19100
C407        C  0.12231650  0.68818268  0.74905822    -0.20900
C408        C  0.10812560  0.69440662  0.71820570    -0.13500
C409        C  0.10781569  0.66153537  0.69662785     0.03200
C410        C  0.12288424  0.62253241  0.70631114    -0.25600
H411        H  0.17270793  0.53888057  0.78449520     0.08300
H412        H  0.15206734  0.55130251  0.72997208     0.11900
H413        H  0.14785659  0.66645755  0.80720000     0.11800
H414        H  0.12156776  0.71385172  0.76539357     0.11500
H415        H  0.09671959  0.72467130  0.71138596     0.12100
H416        H  0.12324181  0.59687542  0.68991115     0.14000
C417        C  0.59089306  0.61888793  0.11667503    -0.06000
C418        C  0.62618672  0.64422501  0.11229029    -0.05900
C419        C  0.66575616  0.62790339  0.11526015    -0.24100
C420        C  0.67094031  0.58586578  0.12268134     0.18100
C421        C  0.63602979  0.56058936  0.12948890     0.15400
C422        C  0.59605816  0.57735360  0.12662640    -0.19100
C423        C  0.64179615  0.51845038  0.13710142    -0.20900
C424        C  0.68130702  0.50093954  0.13542913    -0.13500
C425        C  0.71547397  0.52536911  0.12615584     0.03200
C426        C  0.71028893  0.56820761  0.12130964    -0.25600
H427        H  0.62330643  0.67639085  0.10504801     0.08300
H428        H  0.69228112  0.64776347  0.11033202     0.11900
H429        H  0.56917045  0.55750774  0.13034015     0.11800
H430        H  0.61552781  0.49859357  0.14272113     0.11500
H431        H  0.68461896  0.46781599  0.13921470     0.12100
H432        H  0.73659997  0.58735590  0.11442289     0.14000
C433        C  0.26608865  0.55978245  0.97955717    -0.06000
C434        C  0.29027099  0.52962097  0.99451491    -0.05900
C435        C  0.31449170  0.54012635  0.02072384    -0.24100
C436        C  0.31427117  0.58081913  0.03262658     0.18100
C437        C  0.28867883  0.61087267  0.01829542     0.15400
C438        C  0.26505911  0.60023124  0.99172063    -0.19100
C439        C  0.28815477  0.65143287  0.03015089    -0.20900
C440        C  0.31447640  0.66284121  0.05481670    -0.13500
C441        C  0.34173374  0.63391086  0.06829208     0.03200
C442        C  0.34043335  0.59245397  0.05768212    -0.25600
H443        H  0.29137688  0.49831766  0.98531076     0.08300
H444        H  0.33389973  0.51664822  0.03134621     0.11900
H445        H  0.24616688  0.62345406  0.98024555     0.11800
H446        H  0.26849907  0.67476422  0.01958506     0.11500
H447        H  0.31492571  0.69496997  0.06234000     0.12100
H448        H  0.36166058  0.56993038  0.06745934     0.14000
C449        C  0.25379356  0.59141616  0.47396922    -0.06000
C450        C  0.24475553  0.63407605  0.47259412    -0.05900
C451        C  0.22426246  0.65345810  0.49712401    -0.24100
C452        C  0.21143244  0.63027814  0.52323440     0.18100
C453        C  0.22124535  0.58750578  0.52529424     0.15400
C454        C  0.24320461  0.56848857  0.50089838    -0.19100
C455        C  0.20677461  0.56402423  0.55082941    -0.20900
C456        C  0.18044098  0.58195193  0.57275460    -0.13500
C457        C  0.16934260  0.62396822  0.57017518     0.03200
C458        C  0.18649611  0.64849228  0.54616990    -0.25600
H459        H  0.25319201  0.65245508  0.45221486     0.08300
H460        H  0.21704778  0.68619914  0.49510233     0.11900
H461        H  0.24993832  0.53556470  0.50205109     0.11800
H462        H  0.21385639  0.53126654  0.55286110     0.11500
H463        H  0.16710396  0.56249525  0.59096375     0.12100
H464        H  0.17721193  0.68064916  0.54362239     0.14000
C465        C  0.07906254  0.40482992  0.36313022    -0.06000
C466        C  0.11427478  0.37942076  0.36375319    -0.05900
C467        C  0.15403603  0.39668419  0.36235063    -0.24100
C468        C  0.15963995  0.43979650  0.36006969     0.18100
C469        C  0.12477856  0.46563289  0.35671642     0.15400
C470        C  0.08457213  0.44798365  0.35823249    -0.19100
C471        C  0.13089569  0.50884871  0.35387163    -0.20900
C472        C  0.17076585  0.52633888  0.35658264    -0.13500
C473        C  0.20502875  0.50094021  0.36248713     0.03200
C474        C  0.19937951  0.45756854  0.36304109    -0.25600
H475        H  0.11126409  0.34613682  0.36721829     0.08300
H476        H  0.18044044  0.37638422  0.36450985     0.11900
H477        H  0.05787044  0.46805706  0.35766264     0.11800
H478        H  0.10469956  0.52925356  0.35099028     0.11500
H479        H  0.17442170  0.55986450  0.35626800     0.12100
H480        H  0.22573277  0.43776620  0.36748520     0.14000
C481        C  0.35677229  0.60595999  0.29524064    -0.06000
C482        C  0.32998791  0.63383740  0.28012183    -0.05900
C483        C  0.34127371  0.65243128  0.25162560    -0.24100
C484        C  0.37974765  0.64384016  0.23812094     0.18100
C485        C  0.40705891  0.61651325  0.25369514     0.15400
C486        C  0.39529634  0.59760391  0.28183009    -0.19100
C487        C  0.44569889  0.60806625  0.24079449    -0.20900
C488        C  0.45647772  0.62476301  0.21183704    -0.13500
C489        C  0.42889845  0.65030895  0.19524781     0.03200
C490        C  0.39101070  0.66095027  0.20895761    -0.25600
H491        H  0.30040393  0.64128994  0.29036080     0.08300
H492        H  0.31996946  0.67344153  0.24017301     0.11900
H493        H  0.41666234  0.57692554  0.29362282     0.11800
H494        H  0.46712176  0.58755997  0.25266288     0.11500
H495        H  0.48592732  0.61632439  0.20180176     0.12100
H496        H  0.36945562  0.68040191  0.19621986     0.14000
C497        C  0.43129433  0.51639614  0.46429433    -0.06000
C498        C  0.42445683  0.48817786  0.48896982    -0.05900
C499        C  0.45600431  0.47983431  0.51049795    -0.24100
C500        C  0.49483928  0.49933294  0.50740935     0.18100
C501        C  0.50201338  0.52751890  0.48251315     0.15400
C502        C  0.47016959  0.53610018  0.46135022    -0.19100
C503        C  0.54097507  0.54659558  0.47908522    -0.20900
C504        C  0.57252104  0.53835274  0.50054901    -0.13500
C505        C  0.56531623  0.51123776  0.52580498     0.03200
C506        C  0.52653812  0.49142211  0.52892068    -0.25600
H507        H  0.39484744  0.47243446  0.49152088     0.08300
H508        H  0.45011722  0.45803709  0.52944117     0.11900
H509        H  0.47602352  0.55764673  0.44221485     0.11800
H510        H  0.54690404  0.56816632  0.46000199     0.11500
H511        H  0.60212814  0.55409090  0.49792801     0.12100
H512        H  0.52087716  0.47018845  0.54829055     0.14000
C513        C  0.74954187  0.45994390  0.51327863    -0.06000
C514        C  0.77092876  0.49106196  0.49643885    -0.05900
C515        C  0.79605818  0.48065466  0.47097130    -0.24100
C516        C  0.79999367  0.43897496  0.46177072     0.18100
C517        C  0.77679228  0.40788710  0.47758069     0.15400
C518        C  0.75190852  0.41851789  0.50310324    -0.19100
C519        C  0.78009427  0.36630814  0.46848788    -0.20900
C520        C  0.80807133  0.35513020  0.44531996    -0.13500
C521        C  0.83338638  0.38524094  0.43060838     0.03200
C522        C  0.82805361  0.42749926  0.43816225    -0.25600
H523        H  0.76945184  0.52324349  0.50368059     0.08300
H524        H  0.81330432  0.50505175  0.45905379     0.11900
H525        H  0.73520533  0.39424641  0.51559873     0.11800
H526        H  0.76218931  0.34215263  0.48015094     0.11500
H527        H  0.81120112  0.32243382  0.43993298     0.12100
H528        H  0.84740604  0.45106246  0.42714567     0.14000
C529        C  0.78270686  0.55223681  0.62446501    -0.06000
C530        C  0.78110187  0.59595798  0.62294024    -0.05900
C531        C  0.81684510  0.62021096  0.62650026    -0.24100
C532        C  0.85503064  0.60135236  0.63181994     0.18100
C533        C  0.85679207  0.55775596  0.63602214     0.15400
C534        C  0.82052059  0.53337274  0.63239030    -0.19100
C535        C  0.89526472  0.53924808  0.64177263    -0.20900
C536        C  0.93177049  0.56322813  0.64079228    -0.13500
C537        C  0.93032167  0.60597948  0.63392329     0.03200
C538        C  0.89170516  0.62510775  0.63082271    -0.25600
H539        H  0.75246220  0.61154838  0.61732366     0.08300
H540        H  0.81487669  0.65363767  0.62364934     0.11900
H541        H  0.82223743  0.49978452  0.63393570     0.11800
H542        H  0.89733082  0.50595613  0.64534188     0.11500
H543        H  0.96126417  0.54777651  0.64291856     0.12100
H544        H  0.89038790  0.65808020  0.62548293     0.14000
C545        C  0.48854005  0.57754770  0.01908095    -0.06000
C546        C  0.51273912  0.58637213  0.99265319    -0.05900
C547        C  0.52124471  0.55522629  0.97118258    -0.24100
C548        C  0.50603452  0.51475397  0.97607828     0.18100
C549        C  0.48132940  0.50547904  0.00241955     0.15400
C550        C  0.47234300  0.53712624  0.02363684    -0.19100
C551        C  0.46671559  0.46461750  0.00726398    -0.20900
C552        C  0.47635337  0.43325304  0.98593897    -0.13500
C553        C  0.50052771  0.44257706  0.95955888     0.03200
C554        C  0.51542869  0.48340839  0.95500486    -0.25600
H555        H  0.52556297  0.61724001  0.98881562     0.08300
H556        H  0.54022134  0.56263500  0.95099909     0.11900
H557        H  0.45398395  0.52993070  0.04420219     0.11800
H558        H  0.44784094  0.45698797  0.02744905     0.11500
H559        H  0.46448782  0.40202348  0.98979642     0.12100
H560        H  0.53446101  0.49105272  0.93487630     0.14000
C561        C  0.60984610  0.35867521  0.79561047    -0.06000
C562        C  0.59358568  0.33385593  0.77152957    -0.05900
C563        C  0.60354658  0.34257723  0.74036857    -0.24100
C564        C  0.63031320  0.37586457  0.73307076     0.18100
C565        C  0.64899695  0.39927895  0.75737297     0.15400
C566        C  0.63841643  0.39063890  0.78852688    -0.19100
C567        C  0.67645888  0.43204121  0.74996704    -0.20900
C568        C  0.68362426  0.44287584  0.71864913    -0.13500
C569        C  0.66297576  0.42137146  0.69462412     0.03200
C570        C  0.63725287  0.38728651  0.70187851    -0.25600
H571        H  0.57147780  0.30921788  0.77669589     0.08300
H572        H  0.58929983  0.32417793  0.72194407     0.11900
H573        H  0.65130704  0.40960547  0.80721873     0.11800
H574        H  0.69128198  0.45005750  0.76835076     0.11500
H575        H  0.70344104  0.46932306  0.71324590     0.12100
H576        H  0.62155811  0.37056006  0.68316817     0.14000
C577        C  0.75555511  0.45127344  0.01340321    -0.06000
C578        C  0.74366884  0.48402276  0.99357740    -0.05900
C579        C  0.71841024  0.47636204  0.96754474    -0.24100
C580        C  0.70558113  0.43565955  0.96054038     0.18100
C581        C  0.71964299  0.40222983  0.97933638     0.15400
C582        C  0.74394826  0.41032579  0.00600107    -0.19100
C583        C  0.70841020  0.36137569  0.97148647    -0.20900
C584        C  0.68199032  0.35384505  0.94611795    -0.13500
C585        C  0.66539363  0.38702166  0.92881462     0.03200
C586        C  0.67794392  0.42789721  0.93569994    -0.25600
H587        H  0.75266353  0.51577747  0.99893311     0.08300
H588        H  0.70841176  0.50228699  0.95319522     0.11900
H589        H  0.75379136  0.38493199  0.02099565     0.11800
H590        H  0.71929956  0.33534517  0.98534653     0.11500
H591        H  0.67267813  0.32211032  0.94108415     0.12100
H592        H  0.66537351  0.45357470  0.92228242     0.14000
C593        C  0.43594087  0.41916554  0.84716132    -0.06000
C594        C  0.44041877  0.46213871  0.84160572    -0.05900
C595        C  0.40565009  0.48798205  0.84113766    -0.24100
C596        C  0.36585966  0.47124602  0.84629038     0.18100
C597        C  0.36100696  0.42757945  0.84892699     0.15400
C598        C  0.39588956  0.40192125  0.84897207    -0.19100
C599        C  0.32170266  0.41038750  0.85424376    -0.20900
C600        C  0.28812174  0.43613061  0.85970500    -0.13500
C601        C  0.29280861  0.47967944  0.85959312     0.03200
C602        C  0.33145047  0.49722162  0.85129308    -0.25600
H603        H  0.47096794  0.47627292  0.84046614     0.08300
H604        H  0.41017881  0.52128336  0.83879605     0.11900
H605        H  0.39209921  0.36883502  0.85331653     0.11800
H606        H  0.31735469  0.37699196  0.85601899     0.11500
H607        H  0.25864375  0.42184982  0.86567502     0.12100
H608        H  0.33553719  0.53072339  0.85133024     0.14000
C609        C  0.59041857  0.26851451  0.47185964    -0.06000
C610        C  0.63081799  0.28471189  0.46836669    -0.05900
C611        C  0.65012095  0.30702257  0.49241351    -0.24100
C612        C  0.62915211  0.31451600  0.52038539     0.18100
C613        C  0.58892948  0.29754588  0.52472497     0.15400
C614        C  0.57009013  0.27380973  0.50064794    -0.19100
C615        C  0.56745173  0.30675506  0.55230864    -0.20900
C616        C  0.58429888  0.33489045  0.57403644    -0.13500
C617        C  0.62362811  0.35288582  0.56927747     0.03200
C618        C  0.64666548  0.34105638  0.54309951    -0.25600
H619        H  0.64754364  0.28041611  0.44670350     0.08300
H620        H  0.68091837  0.31973020  0.48864856     0.11900
H621        H  0.53900665  0.26145669  0.50365533     0.11800
H622        H  0.53663644  0.29419137  0.55617439     0.11500
H623        H  0.56583324  0.34412959  0.59388967     0.12100
H624        H  0.67654459  0.35564457  0.53891100     0.14000
C625        C  0.38682658  0.42296843  0.36633748    -0.06000
C626        C  0.36478092  0.38642293  0.37412005    -0.05900
C627        C  0.38396282  0.34770401  0.37329238    -0.24100
C628        C  0.42563293  0.34465447  0.36468722     0.18100
C629        C  0.44738783  0.38056477  0.35458278     0.15400
C630        C  0.42777232  0.41949932  0.35527363    -0.19100
C631        C  0.48911172  0.37717121  0.34581961    -0.20900
C632        C  0.50979599  0.33923903  0.34913905    -0.13500
C633        C  0.48910455  0.30414074  0.36133235     0.03200
C634        C  0.44652396  0.30678502  0.36786421    -0.25600
H635        H  0.33330473  0.38793166  0.38259741     0.08300
H636        H  0.36671772  0.32036339  0.38081115     0.11900
H637        H  0.44524214  0.44729253  0.34908318     0.11800
H638        H  0.50627279  0.40429036  0.33777812     0.11500
H639        H  0.54256708  0.33806364  0.34407869     0.12100
H640        H  0.43013479  0.27981542  0.37710420     0.14000
C641        C  0.59020938  0.94181832  0.11981128    -0.06000
C642        C  0.54747158  0.94544545  0.12538505    -0.05900
C643        C  0.52244882  0.91008806  0.12963476    -0.24100
C644        C  0.53958091  0.87031832  0.12815767     0.18100
C645        C  0.58288419  0.86642827  0.12443424     0.15400
C646        C  0.60792325  0.90212771  0.12064057    -0.19100
C647        C  0.60011086  0.82679984  0.12236746    -0.20900
C648        C  0.57447841  0.79161709  0.12132008    -0.13500
C649        C  0.53126927  0.79524370  0.12304434     0.03200
C650        C  0.51397703  0.83451067  0.12798132    -0.25600
H651        H  0.53293895  0.97562052  0.12509466     0.08300
H652        H  0.48942539  0.91382439  0.13262170     0.11900
H653        H  0.64077221  0.89879052  0.11643306     0.11800
H654        H  0.63318917  0.82315002  0.11964498     0.11500
H655        H  0.58825973  0.76156161  0.11725860     0.12100
H656        H  0.48061331  0.83754327  0.12866967     0.14000
C657        C  0.60519378  0.16383529  0.29282689    -0.06000
C658        C  0.62225130  0.19615626  0.27458954    -0.05900
C659        C  0.63837171  0.18803682  0.24482026    -0.24100
C660        C  0.63828651  0.14733002  0.23301311     0.18100
C661        C  0.62177059  0.11457518  0.25152140     0.15400
C662        C  0.60519824  0.12305644  0.28107520    -0.19100
C663        C  0.62147597  0.07386331  0.24000821    -0.20900
C664        C  0.63556424  0.06589387  0.20983143    -0.13500
C665        C  0.65089353  0.09826431  0.19079004     0.03200
C666        C  0.65323183  0.13888045  0.20275235    -0.25600
H667        H  0.62292336  0.22773400  0.28331088     0.08300
H668        H  0.65084740  0.21358109  0.23103237     0.11900
H669        H  0.59281815  0.09770188  0.29515875     0.11800
H670        H  0.60912776  0.04838653  0.25394795     0.11500
H671        H  0.63319075  0.03447608  0.20085462     0.12100
H672        H  0.66424148  0.16408223  0.18791032     0.14000
C673        C  0.63570008  0.18362449  0.06179839    -0.06000
C674        C  0.66501890  0.21217591  0.05001224    -0.05900
C675        C  0.65431075  0.24009624  0.02620130    -0.24100
C676        C  0.61433686  0.23924374  0.01324492     0.18100
C677        C  0.58414804  0.21171604  0.02568110     0.15400
C678        C  0.59484601  0.18455526  0.05022269    -0.19100
C679        C  0.54437004  0.21042585  0.01232865    -0.20900
C680        C  0.53494141  0.23532087  0.98634177    -0.13500
C681        C  0.56516882  0.26174619  0.97318082     0.03200
C682        C  0.60460211  0.26414161  0.98720060    -0.25600
H683        H  0.69670679  0.21179065  0.05839745     0.08300
H684        H  0.67778777  0.26110131  0.01699673     0.11900
H685        H  0.57217471  0.16212184  0.05870002     0.11800
H686        H  0.52088717  0.18938581  0.02146693     0.11500
H687        H  0.50440921  0.23285861  0.97587771     0.12100
H688        H  0.62803196  0.28466338  0.97740091     0.14000
C689        C  0.38574347  0.67046560  0.42139474    -0.06000
C690        C  0.42893108  0.67683287  0.42184610    -0.05900
C691        C  0.44753564  0.70297295  0.44424088    -0.24100
C692        C  0.42334930  0.72272378  0.46689313     0.18100
C693        C  0.37984605  0.71743149  0.46584563     0.15400
C694        C  0.36142814  0.69200347  0.44299932    -0.19100
C695        C  0.35531404  0.73619233  0.48850174    -0.20900
C696        C  0.37361618  0.75888744  0.51265251    -0.13500
C697        C  0.41691173  0.76379025  0.51470613     0.03200
C698        C  0.44172607  0.74636391  0.49120699    -0.25600
H699        H  0.44850199  0.66037092  0.40566217     0.08300
H700        H  0.48091315  0.70654223  0.44452620     0.11900
H701        H  0.32815530  0.68725553  0.44320747     0.11800
H702        H  0.32193110  0.73247054  0.48801257     0.11500
H703        H  0.35360222  0.77223375  0.53010787     0.12100
H704        H  0.47508840  0.74986513  0.49247158     0.14000
C705        C  0.52666475  0.73313651  0.62370974    -0.06000
C706        C  0.56999903  0.73846714  0.62402687    -0.05900
C707        C  0.59606373  0.70479621  0.62856332    -0.24100
C708        C  0.57944967  0.66491275  0.63298561     0.18100
C709        C  0.53607616  0.65936093  0.63552488     0.15400
C710        C  0.50976601  0.69368973  0.63101342    -0.19100
C711        C  0.51993034  0.61908949  0.64034174    -0.20900
C712        C  0.54612767  0.58459799  0.63984091    -0.13500
C713        C  0.58873115  0.58989230  0.63439400     0.03200
C714        C  0.60540014  0.63026301  0.63250118    -0.25600
H715        H  0.58400139  0.76857091  0.61916466     0.08300
H716        H  0.62923657  0.70968249  0.62705263     0.11900
H717        H  0.47648218  0.68913113  0.63103123     0.11800
H718        H  0.48687810  0.61404827  0.64265629     0.11500
H719        H  0.53260585  0.55364869  0.64100623     0.12100
H720        H  0.63824670  0.63451042  0.62821954     0.14000
C721        C  0.49491802  0.94881531  0.52146503    -0.06000
C722        C  0.51209217  0.93781743  0.49255100    -0.05900
C723        C  0.52525875  0.96863635  0.47154437    -0.24100
C724        C  0.52128555  0.01078920  0.47916885     0.18100
C725        C  0.50340256  0.02203452  0.50800917     0.15400
C726        C  0.49038538  0.99106947  0.52887056    -0.19100
C727        C  0.49857163  0.06409036  0.51548562    -0.20900
C728        C  0.51026926  0.09485603  0.49409570    -0.13500
C729        C  0.52779828  0.08394219  0.46533169     0.03200
C730        C  0.53402592  0.04191324  0.45820399    -0.25600
H731        H  0.51610526  0.90546169  0.48645982     0.08300
H732        H  0.53868410  0.95953097  0.44942892     0.11900
H733        H  0.47710247  0.00001432  0.55109739     0.11800
H734        H  0.48490962  0.07313064  0.53753635     0.11500
H735        H  0.50502292  0.12717338  0.49975838     0.12100
H736        H  0.54680933  0.03341236  0.43570126     0.14000
C737        C  0.42037904  0.75983710  0.01656189    -0.06000
C738        C  0.37836194  0.76950791  0.01974196    -0.05900
C739        C  0.35758612  0.79095225  0.99611985    -0.24100
C740        C  0.37880179  0.80406325  0.96923578     0.18100
C741        C  0.42094173  0.79393053  0.96546329     0.15400
C742        C  0.44133502  0.77102935  0.98895518    -0.19100
C743        C  0.44226644  0.80850927  0.93894583    -0.20900
C744        C  0.42266954  0.83473742  0.91733611    -0.13500
C745        C  0.38116342  0.84598820  0.92152384     0.03200
C746        C  0.35905304  0.82910111  0.94696118    -0.25600
H747        H  0.36158760  0.76055236  0.04068215     0.08300
H748        H  0.32527922  0.79846023  0.99934780     0.11900
H749        H  0.47380402  0.76366996  0.98647584     0.11800
H750        H  0.47457031  0.80112163  0.93563535     0.11500
H751        H  0.44045014  0.84750001  0.89804227     0.12100
H752        H  0.32712627  0.83774151  0.95071144     0.14000
C753        C  0.56951911  0.03708761  0.01703058    -0.06000
C754        C  0.55411951  0.07340075  0.00297842    -0.05900
C755        C  0.51745706  0.07214095  0.98558332    -0.24100
C756        C  0.49525276  0.03467329  0.98263042     0.18100
C757        C  0.51114796  0.99784348  0.99623356     0.15400
C758        C  0.54853508  0.99918853  0.01289599    -0.19100
C759        C  0.48899543  0.96038533  0.99347189    -0.20900
C760        C  0.45208282  0.95910739  0.97653067    -0.13500
C761        C  0.43647638  0.99531802  0.96252356     0.03200
C762        C  0.45767428  0.03324621  0.96608219    -0.25600
H763        H  0.56978369  0.10303011  0.00640427     0.08300
H764        H  0.50590659  0.10060041  0.97523405     0.11900
H765        H  0.55985890  0.97134655  0.02436809     0.11800
H766        H  0.50062251  0.93196851  0.00383781     0.11500
H767        H  0.43628086  0.92947654  0.97342626     0.12100
H768        H  0.44616573  0.06095385  0.95454087     0.14000
C769        C  0.34539111  0.92347101  0.79414457    -0.06000
C770        C  0.34999931  0.95670823  0.77302899    -0.05900
C771        C  0.36316103  0.94982753  0.74254573    -0.24100
C772        C  0.37271381  0.90958178  0.73283923     0.18100
C773        C  0.36701377  0.87550641  0.75347337     0.15400
C774        C  0.35274616  0.88262548  0.78410635    -0.19100
C775        C  0.37733199  0.83538997  0.74338559    -0.20900
C776        C  0.39357165  0.82932357  0.71332149    -0.13500
C777        C  0.39978585  0.86331165  0.69298407     0.03200
C778        C  0.38890888  0.90326880  0.70300124    -0.25600
H779        H  0.34503799  0.98836947  0.78062916     0.08300
H780        H  0.36737194  0.97620224  0.72693485     0.11900
H781        H  0.35022154  0.85705212  0.80065620     0.11800
H782        H  0.37323940  0.80883665  0.75882223     0.11500
H783        H  0.40134190  0.79817398  0.70603176     0.12100
H784        H  0.39317171  0.92984416  0.68757029     0.14000
C785        C  0.39484709  0.09247299  0.86253048    -0.06000
C786        C  0.36930509  0.12747385  0.85981669    -0.05900
C787        C  0.38640845  0.16747178  0.85732122    -0.24100
C788        C  0.42943462  0.17335738  0.85776177     0.18100
C789        C  0.45543964  0.13829639  0.85851109     0.15400
C790        C  0.43800962  0.09806590  0.86054216    -0.19100
C791        C  0.49845999  0.14418977  0.85909244    -0.20900
C792        C  0.51548321  0.18427369  0.86092299    -0.13500
C793        C  0.48987582  0.21936513  0.86215117     0.03200
C794        C  0.44678596  0.21364336  0.85933959    -0.25600
H795        H  0.33596456  0.12412800  0.86107612     0.08300
H796        H  0.36594598  0.19391211  0.85648645     0.11900
H797        H  0.45812068  0.07144793  0.86270707     0.11800
H798        H  0.51893487  0.11774443  0.85949922     0.11500
H799        H  0.54877173  0.18759226  0.86298693     0.12100
H800        H  0.42661894  0.24031054  0.86023001     0.14000
C801        C  0.07304137  0.76485758  0.51620678    -0.06000
C802        C  0.04109160  0.78581663  0.50035955    -0.05900
C803        C  0.04970619  0.81216292  0.47493986    -0.24100
C804        C  0.09049172  0.81797802  0.46456731     0.18100
C805        C  0.12274302  0.79598370  0.47953419     0.15400
C806        C  0.11387992  0.76965631  0.50524407    -0.19100
C807        C  0.16350758  0.80171343  0.46913040    -0.20900
C808        C  0.17252614  0.83040903  0.44528699    -0.13500
C809        C  0.14100872  0.85387149  0.43103181     0.03200
C810        C  0.09974383  0.84654215  0.44031191    -0.25600
H811        H  0.00936451  0.78273814  0.50817286     0.08300
H812        H  0.02450600  0.82861866  0.46377493     0.11900
H813        H  0.13881705  0.75346319  0.51699608     0.11800
H814        H  0.18865796  0.78498568  0.48013081     0.11500
H815        H  0.20457041  0.83534612  0.43879400     0.12100
H816        H  0.07509529  0.86462395  0.42989300     0.14000
C817        C  0.10524748  0.09688591  0.35986681    -0.06000
C818        C  0.12957462  0.13337482  0.35755901    -0.05900
C819        C  0.11123204  0.17238644  0.35634099    -0.24100
C820        C  0.06813655  0.17576801  0.35731630     0.18100
C821        C  0.04311351  0.13939615  0.35660751     0.15400
C822        C  0.06186099  0.10002209  0.35766064    -0.19100
C823        C  0.99985198  0.14320153  0.35719303    -0.20900
C824        C  0.98182344  0.18232616  0.36086489    -0.13500
C825        C  0.00679970  0.21807025  0.36426108     0.03200
C826        C  0.04985633  0.21476135  0.36119684    -0.25600
H827        H  0.16301968  0.13197756  0.35882571     0.08300
H828        H  0.13084104  0.19996062  0.35639182     0.11900
H829        H  0.04268367  0.07223569  0.35943277     0.11800
H830        H  0.98006378  0.11579003  0.35640514     0.11500
H831        H  0.94855683  0.18426476  0.36331268     0.12100
H832        H  0.06925874  0.24232481  0.36367049     0.14000
C833        C  0.33215806  0.89092607  0.56672975    -0.06000
C834        C  0.30870333  0.85993176  0.55152560    -0.05900
C835        C  0.28151722  0.87045247  0.52718643    -0.24100
C836        C  0.27729171  0.91213358  0.51791106     0.18100
C837        C  0.29783413  0.94376821  0.53509160     0.15400
C838        C  0.32492975  0.93294961  0.55946219    -0.19100
C839        C  0.29294425  0.98555757  0.52635754    -0.20900
C840        C  0.26964455  0.99579384  0.49981891    -0.13500
C841        C  0.25159237  0.96438431  0.48145476     0.03200
C842        C  0.25457241  0.92265586  0.49093852    -0.25600
H843        H  0.31369791  0.82741053  0.55680422     0.08300
H844        H  0.26545309  0.84586474  0.51459771     0.11900
H845        H  0.34260372  0.95713037  0.57130630     0.11800
H846        H  0.30817177  0.01018754  0.53946481     0.11500
H847        H  0.26716078  0.02810720  0.49284066     0.12100
H848        H  0.23993866  0.89847959  0.47695606     0.14000
C849        C  0.28904731  0.05137791  0.36542712    -0.06000
C850        C  0.28541640  0.09483687  0.36795149    -0.05900
C851        C  0.32017099  0.12092783  0.36622369    -0.24100
C852        C  0.35949821  0.10408769  0.36222744     0.18100
C853        C  0.36317574  0.06083409  0.35686257     0.15400
C854        C  0.32777980  0.03467145  0.35811833    -0.19100
C855        C  0.40256897  0.04416072  0.35266432    -0.20900
C856        C  0.43790383  0.06925597  0.35624241    -0.13500
C857        C  0.43477598  0.11165688  0.36415916     0.03200
C858        C  0.39523798  0.12926265  0.36569650    -0.25600
H859        H  0.25577319  0.10849343  0.37324594     0.08300
H860        H  0.31652565  0.15400482  0.36988697     0.11900
H861        H  0.33099654  0.00125136  0.35629619     0.11800
H862        H  0.40618525  0.01127476  0.34814256     0.11500
H863        H  0.46785590  0.05472354  0.35446534     0.12100
H864        H  0.39221196  0.16187692  0.37147843     0.14000
C865        C  0.07409325  0.75639127  0.01691867    -0.06000
C866        C  0.04427501  0.74220142  0.99528325    -0.05900
C867        C  0.05580699  0.71823294  0.96953057    -0.24100
C868        C  0.09754068  0.70877269  0.96454572     0.18100
C869        C  0.12798374  0.72429026  0.98549374     0.15400
C870        C  0.11603428  0.74757299  0.01176249    -0.19100
C871        C  0.16976465  0.71554899  0.98010772    -0.20900
C872        C  0.18113127  0.69005905  0.95514927    -0.13500
C873        C  0.15098515  0.67255904  0.93509938     0.03200
C874        C  0.10919028  0.68306504  0.93954362    -0.25600
H875        H  0.01182441  0.74874967  0.99879228     0.08300
H876        H  0.03202984  0.70676315  0.95368133     0.11900
H877        H  0.13927837  0.75894089  0.02812858     0.11800
H878        H  0.19360627  0.72752061  0.99569524     0.11500
H879        H  0.21349571  0.68268718  0.95233499     0.12100
H880        H  0.08547389  0.66977463  0.92443892     0.14000
C881        C  0.99474706  0.71802354  0.13080377    -0.06000
C882        C  0.02048960  0.68388980  0.13636889    -0.05900
C883        C  0.00350330  0.64382212  0.13947402    -0.24100
C884        C  0.96051865  0.63753705  0.13729158     0.18100
C885        C  0.93439962  0.67239190  0.13458376     0.15400
C886        C  0.95167125  0.71234381  0.13126300    -0.19100
C887        C  0.89150578  0.66651450  0.13296005    -0.20900
C888        C  0.87476999  0.62647637  0.13105979    -0.13500
C889        C  0.90059189  0.59150961  0.13051843     0.03200
C890        C  0.94340064  0.59714777  0.13540025    -0.25600
H891        H  0.05382482  0.68776406  0.13593038     0.08300
H892        H  0.02405521  0.61760971  0.14188505     0.11900
H893        H  0.93172486  0.73872365  0.12709132     0.11800
H894        H  0.87101876  0.69289757  0.13142554     0.11500
H895        H  0.84162303  0.62313922  0.12787952     0.12100
H896        H  0.96364069  0.57050619  0.13528364     0.14000
C897        C  0.91756412  0.90105678  0.12034534    -0.06000
C898        C  0.88265052  0.87588776  0.11369853    -0.05900
C899        C  0.84289020  0.89239360  0.11322821    -0.24100
C900        C  0.83676264  0.93446610  0.11974850     0.18100
C901        C  0.87093411  0.95972356  0.12860346     0.15400
C902        C  0.91125293  0.94294936  0.12871737    -0.19100
C903        C  0.86420566  0.00170856  0.13577285    -0.20900
C904        C  0.82465452  0.01888907  0.13243316    -0.13500
C905        C  0.79109015  0.99457471  0.12153891     0.03200
C906        C  0.79729498  0.95198995  0.11614209    -0.25600
H907        H  0.88614108  0.84360267  0.10720875     0.08300
H908        H  0.81701904  0.87244925  0.10670738     0.11900
H909        H  0.93766632  0.96285607  0.13393852     0.11800
H910        H  0.88979305  0.02163472  0.14290557     0.11500
H911        H  0.82087778  0.05181290  0.13664382     0.12100
H912        H  0.77170824  0.93279102  0.10788943     0.14000
C913        C  0.15512299  0.91735277  0.29977034    -0.06000
C914        C  0.18704361  0.89951115  0.28223212    -0.05900
C915        C  0.17873388  0.88233450  0.25251140    -0.24100
C916        C  0.13828877  0.88230148  0.24002701     0.18100
C917        C  0.10605435  0.89909478  0.25809567     0.15400
C918        C  0.11464831  0.91637856  0.28749659    -0.19100
C919        C  0.06558505  0.89928014  0.24630936    -0.20900
C920        C  0.05719658  0.88493933  0.21619703    -0.13500
C921        C  0.08889590  0.86955263  0.19726096     0.03200
C922        C  0.12942907  0.86711257  0.20960728    -0.25600
H923        H  0.21839598  0.89932255  0.29130133     0.08300
H924        H  0.20395850  0.86946594  0.23919266     0.11900
H925        H  0.08942911  0.92914876  0.30092925     0.11800
H926        H  0.04052218  0.91174355  0.26004364     0.11500
H927        H  0.02582861  0.88697841  0.20727242     0.12100
H928        H  0.15418012  0.85565655  0.19506354     0.14000
C929        C  0.24942356  0.95113911  0.97824122    -0.06000
C930        C  0.22051523  0.98105912  0.98702022    -0.05900
C931        C  0.19433537  0.97392401  0.01252633    -0.24100
C932        C  0.19701030  0.93684549  0.02982491     0.18100
C933        C  0.22734497  0.90731934  0.02183143     0.15400
C934        C  0.25327461  0.91457483  0.99595025    -0.19100
C935        C  0.23003755  0.87027612  0.03905514    -0.20900
C936        C  0.20121666  0.86122778  0.06247183    -0.13500
C937        C  0.16948083  0.88925587  0.06946588     0.03200
C938        C  0.16854327  0.92782140  0.05385172    -0.25600
H939        H  0.21739644  0.00945504  0.97348989     0.08300
H940        H  0.17137865  0.99693937  0.01825513     0.11900
H941        H  0.27581350  0.89158793  0.98919996     0.11800
H942        H  0.25325750  0.84745539  0.03347474     0.11500
H943        H  0.20249601  0.83126510  0.07412234     0.12100
H944        H  0.14381878  0.94935337  0.05866913     0.14000
C945        C  0.98980221  0.80052088  0.62484252    -0.06000
C946        C  0.01428655  0.83551739  0.63261181    -0.05900
C947        C  0.99653034  0.87490422  0.63582719    -0.24100
C948        C  0.95389444  0.88036415  0.63103388     0.18100
C949        C  0.92871266  0.84517657  0.62450158     0.15400
C950        C  0.94665433  0.80560620  0.62182090    -0.19100
C951        C  0.88627979  0.85045212  0.61900057    -0.20900
C952        C  0.86941103  0.89029333  0.61800302    -0.13500
C953        C  0.89428701  0.92581037  0.62314957     0.03200
C954        C  0.93639123  0.92050504  0.63082119    -0.25600
H955        H  0.04751713  0.83279499  0.63502672     0.08300
H956        H  0.01645207  0.90139166  0.64087683     0.11900
H957        H  0.92718633  0.77916660  0.61567485     0.11800
H958        H  0.86643603  0.82388217  0.61399607     0.11500
H959        H  0.83702835  0.89352807  0.61185798     0.12100
H960        H  0.95608992  0.94765499  0.63417528     0.14000
C961        C  0.87636566  0.17295492  0.56943126    -0.06000
C962        C  0.84361374  0.19361099  0.55443462    -0.05900
C963        C  0.85123452  0.22050325  0.52919552    -0.24100
C964        C  0.89182016  0.22761044  0.51878388     0.18100
C965        C  0.92518716  0.20933832  0.53518063     0.15400
C966        C  0.91723700  0.18200369  0.56025413    -0.19100
C967        C  0.96587784  0.21732893  0.52537671    -0.20900
C968        C  0.97341426  0.24214978  0.49901132    -0.13500
C969        C  0.94041082  0.25854045  0.48161327     0.03200
C970        C  0.89961026  0.25160715  0.49176902    -0.25600
H971        H  0.81184986  0.18675138  0.56078182     0.08300
H972        H  0.82528709  0.23452987  0.51712362     0.11900
H973        H  0.94271939  0.16615996  0.57160557     0.11800
H974        H  0.99182789  0.20381801  0.53777899     0.11500
H975        H  0.00503830  0.24734939  0.49150634     0.12100
H976        H  0.87408748  0.26473719  0.47858454     0.14000
C977        C  0.93125210  0.02290172  0.52103077    -0.06000
C978        C  0.92311870  0.99847506  0.49452201    -0.05900
C979        C  0.95480529  0.99011241  0.47337935    -0.24100
C980        C  0.99474559  0.00644457  0.47845365     0.18100
C981        C  0.00248810  0.03262785  0.50437488     0.15400
C982        C  0.97072639  0.04062951  0.52544169    -0.19100
C983        C  0.04206610  0.04977536  0.50916809    -0.20900
C984        C  0.07400135  0.04072191  0.48855792    -0.13500
C985        C  0.06688383  0.01392112  0.46321480     0.03200
C986        C  0.02714874  0.99691018  0.45821068    -0.25600
H987        H  0.89282776  0.98448717  0.49089420     0.08300
H988        H  0.94831450  0.97027261  0.45344954     0.11900
H989        H  0.97696243  0.05996200  0.54573703     0.11800
H990        H  0.04831793  0.07009797  0.52886568     0.11500
H991        H  0.10435723  0.05439230  0.49254975     0.12100
H992        H  0.02129021  0.97684688  0.43827388     0.14000
C993        C  0.67648662  0.14497986  0.42094872    -0.06000
C994        C  0.69340245  0.10564002  0.41526870    -0.05900
C995        C  0.71730149  0.08572571  0.43816408    -0.24100
C996        C  0.72391394  0.10437845  0.46744402     0.18100
C997        C  0.70844012  0.14468040  0.47283554     0.15400
C998        C  0.68562389  0.16502591  0.44938503    -0.19100
C999        C  0.71416786  0.16316953  0.50217165    -0.20900
C1000       C  0.73412032  0.14164325  0.52620971    -0.13500
C1001       C  0.74919557  0.10121436  0.52147063     0.03200
C1002       C  0.74446199  0.08296595  0.49173004    -0.25600
H1003       H  0.68656982  0.08944178  0.39361744     0.08300
H1004       H  0.72902109  0.05495668  0.43347063     0.11900
H1005       H  0.67218237  0.19503662  0.45429751     0.11800
H1006       H  0.70248560  0.19400491  0.50674604     0.11500
H1007       H  0.73755346  0.15679176  0.54870259     0.12100
H1008       H  0.75613747  0.05201253  0.48762471     0.14000
C1009       C  0.71758901  0.97910959  0.62397444    -0.06000
C1010       C  0.72078407  0.93566152  0.62107812    -0.05900
C1011       C  0.68587320  0.90996368  0.62312677    -0.24100
C1012       C  0.64693890  0.92715888  0.62811246     0.18100
C1013       C  0.64368308  0.97029415  0.63401022     0.15400
C1014       C  0.67921371  0.99610812  0.63215825    -0.19100
C1015       C  0.60450174  0.98712140  0.63941079    -0.20900
C1016       C  0.56887140  0.96215237  0.63659121    -0.13500
C1017       C  0.57183356  0.92010151  0.62808960     0.03200
C1018       C  0.61105801  0.90241213  0.62509802    -0.25600
H1019       H  0.75011708  0.92163732  0.61539912     0.08300
H1020       H  0.68905562  0.87689935  0.61912698     0.11900
H1021       H  0.67635257  0.02949501  0.63455846     0.11800
H1022       H  0.60124796  0.01997317  0.64422061     0.11500
H1023       H  0.53885290  0.97647142  0.63877405     0.12100
H1024       H  0.61352308  0.86996826  0.61858905     0.14000
C1025       C  0.75533866  0.07430708  0.00908360    -0.06000
C1026       C  0.77338198  0.04272033  0.99135219    -0.05900
C1027       C  0.79825811  0.05267562  0.96555305    -0.24100
C1028       C  0.80471060  0.09437497  0.95678000     0.18100
C1029       C  0.78455947  0.12610873  0.97352785     0.15400
C1030       C  0.76038501  0.11590554  0.99975813    -0.19100
C1031       C  0.79015200  0.16767247  0.96449052    -0.20900
C1032       C  0.81779395  0.17805574  0.94062553    -0.13500
C1033       C  0.84045054  0.14711466  0.92528745     0.03200
C1034       C  0.83243049  0.10506242  0.93262236    -0.25600
H1035       H  0.76942390  0.01043718  0.99818165     0.08300
H1036       H  0.81313971  0.02787177  0.95290989     0.11900
H1037       H  0.74583986  0.14027218  0.01315655     0.11800
H1038       H  0.77447375  0.19232328  0.97675335     0.11500
H1039       H  0.82309226  0.21066363  0.93535986     0.12100
H1040       H  0.84969972  0.08088016  0.92107605     0.14000
C1041       C  0.99755343  0.07840775  0.96636730    -0.06000
C1042       C  0.03049821  0.08287112  0.98771439    -0.05900
C1043       C  0.04153590  0.04992914  0.00719142    -0.24100
C1044       C  0.01987848  0.01202401  0.00551145     0.18100
C1045       C  0.98615675  0.00742061  0.98460064     0.15400
C1046       C  0.97501703  0.04076837  0.96529126    -0.19100
C1047       C  0.96447104  0.96941499  0.98317061    -0.20900
C1048       C  0.97564143  0.93646255  0.00279794    -0.13500
C1049       C  0.00889415  0.94102995  0.02384182     0.03200
C1050       C  0.03125209  0.97878094  0.02465825    -0.25600
H1051       H  0.04834154  0.11155335  0.98888617     0.08300
H1052       H  0.06733714  0.05391361  0.02326705     0.11900
H1053       H  0.94970087  0.03691115  0.94874515     0.11800
H1054       H  0.93857237  0.96537927  0.96720143     0.11500
H1055       H  0.95780290  0.90776424  0.00195647     0.12100
H1056       H  0.05684811  0.98288952  0.04093101     0.14000
C1057       C  0.91904104  0.16697539  0.79612770    -0.06000
C1058       C  0.95103418  0.16572430  0.77410115    -0.05900
C1059       C  0.94303661  0.15294346  0.74341888    -0.24100
C1060       C  0.90311264  0.13980244  0.73465206     0.18100
C1061       C  0.87029793  0.14257478  0.75630787     0.15400
C1062       C  0.87837943  0.15689032  0.78688938    -0.19100
C1063       C  0.83052954  0.12885770  0.74746420    -0.20900
C1064       C  0.82369881  0.11102849  0.71794603    -0.13500
C1065       C  0.85650804  0.10660339  0.69676091     0.03200
C1066       C  0.89594503  0.12218154  0.70508039    -0.25600
H1067       H  0.98256787  0.17306074  0.78106138     0.08300
H1068       H  0.96847534  0.15126499  0.72704194     0.11900
H1069       H  0.85380373  0.15714145  0.80409414     0.11800
H1070       H  0.80492226  0.13098909  0.76364651     0.11500
H1071       H  0.79285785  0.10017153  0.71186100     0.12100
H1072       H  0.92138372  0.11995869  0.68872523     0.14000
C1073       C  0.87661626  0.34540817  0.06450736    -0.06000
C1074       C  0.84571538  0.32395853  0.04738953    -0.05900
C1075       C  0.85596643  0.29823534  0.02243672    -0.24100
C1076       C  0.89739549  0.29303689  0.01415078     0.18100
C1077       C  0.92900636  0.31164821  0.03260997     0.15400
C1078       C  0.91843862  0.33776698  0.05771985    -0.19100
C1079       C  0.97055462  0.30519395  0.02470786    -0.20900
C1080       C  0.98054041  0.28181524  0.99823207    -0.13500
C1081       C  0.94919358  0.26541353  0.97886114     0.03200
C1082       C  0.90765610  0.27056916  0.98717391    -0.25600
H1083       H  0.81323821  0.32890605  0.05208286     0.08300
H1084       H  0.83136905  0.28365752  0.00888707     0.11900
H1085       H  0.94261346  0.35400649  0.07062697     0.11800
H1086       H  0.99527881  0.31879961  0.03866686     0.11500
H1087       H  0.01276465  0.27766517  0.99226172     0.12100
H1088       H  0.88341450  0.25718012  0.97256745     0.14000
C1089       C  0.09911708  0.43915748  0.86128185    -0.06000
C1090       C  0.05617909  0.44447014  0.85744269    -0.05900
C1091       C  0.02974380  0.41021842  0.85379047    -0.24100
C1092       C  0.04573392  0.36999403  0.85406453     0.18100
C1093       C  0.08915978  0.36450582  0.85512690     0.15400
C1094       C  0.11563206  0.39918310  0.85831524    -0.19100
C1095       C  0.10517151  0.32425179  0.85589739    -0.20900
C1096       C  0.07851205  0.29011720  0.85915689    -0.13500
C1097       C  0.03553241  0.29567798  0.86085950     0.03200
C1098       C  0.01906234  0.33531795  0.85625593    -0.25600
H1099       H  0.04256415  0.47496741  0.85930682     0.08300
H1100       H  0.99663985  0.41508913  0.85272683     0.11900
H1101       H  0.14865728  0.39468369  0.86104279     0.11800
H1102       H  0.13828916  0.31935745  0.85636481     0.11500
H1103       H  0.09157077  0.25952080  0.86253294     0.12100
H1104       H  0.98590966  0.33964167  0.85788870     0.14000
C1105       C  0.08467750  0.11472622  0.86364869    -0.06000
C1106       C  0.12011873  0.13982194  0.85914640    -0.05900
C1107       C  0.15915826  0.12210779  0.85690155    -0.24100
C1108       C  0.16348866  0.07896146  0.85926158     0.18100
C1109       C  0.12781808  0.05313163  0.86115494     0.15400
C1110       C  0.08849954  0.07119750  0.86304701    -0.19100
C1111       C  0.13237468  0.00986244  0.86329003    -0.20900
C1112       C  0.17184690  0.99266910  0.86559191    -0.13500
C1113       C  0.20716093  0.01851321  0.86606681     0.03200
C1114       C  0.20291109  0.06149183  0.86185159    -0.25600
H1115       H  0.11795787  0.17341520  0.85914727     0.08300
H1116       H  0.18612595  0.14229312  0.85498171     0.11900
H1117       H  0.06142762  0.05151177  0.86651738     0.11800
H1118       H  0.10546454  0.98952171  0.86462852     0.11500
H1119       H  0.17467418  0.95943574  0.86911944     0.12100
H1120       H  0.23020603  0.08144981  0.86223334     0.14000
loop_ 
_geom_bond_atom_site_label_1 
_geom_bond_atom_site_label_2 
_geom_bond_distance 
_geom_bond_site_symmetry_2 
_ccdc_geom_bond_type 
O1           C16   1.260       .  A
O1           Al9   1.889       .  S
C2           O12   1.267       .  A
C2            O3   1.257       .  A
C2         C1033   1.483       .  S
O3           Al5   1.873       .  S
O4            C6   1.267       .  A
O4           Al5   1.932       .  S
Al5          O13   1.938       .  S
Al5          O15   1.910       .  S
Al5          O14   1.787       .  S
C6           O19   1.259       .  A
C6         C1081   1.474       .  S
O7           C17   1.261   1_455  A
O7           Al9   1.907       .  S
O8           C21   1.267       .  A
O8          Al18   1.937   1_455  S
Al9          O22   1.880       .  S
Al9          O19   1.889   1_455  S
Al9          O14   1.779   1_455  S
O10          C17   1.256       .  A
O10         Al18   1.878       .  S
O11          C20   1.256       .  A
O11         Al18   1.879       .  S
O12         Al18   1.935       .  S
O13          C20   1.264       .  A
O14         Al18   1.783       .  S
O15          C16   1.262   1_655  A
C16        C1097   1.466       .  S
C17        C1041   1.469       .  S
C20        C1057   1.469       .  S
C21          O22   1.258       .  A
C21        C1105   1.479       .  S
O23          C38   1.257   1_565  A
O23         Al31   1.869   1_565  S
C24          O34   1.265       .  A
C24          O25   1.273       .  A
C24         C961   1.479       .  S
O25         Al27   1.935       .  S
O26          C28   1.250       .  A
O26         Al27   1.866       .  S
Al27         O35   1.901       .  S
Al27         O37   1.935       .  S
Al27         O36   1.798       .  S
C28          O41   1.259       .  A
C28        C1001   1.486       .  S
O29          C39   1.253       .  A
O29         Al31   1.897       .  S
O30          C43   1.275   1_545  A
O30         Al40   1.927       .  S
Al31         O44   1.924   1_545  S
Al31         O41   1.921       .  S
Al31         O36   1.788       .  S
O32          C39   1.251       .  A
O32         Al40   1.880       .  S
O33          C42   1.253       .  A
O33         Al40   1.896       .  S
O34         Al40   1.883       .  S
O35          C42   1.254       .  A
O36         Al40   1.798       .  S
O37          C38   1.267       .  A
C38        C1009   1.483   1_545  S
C39         C977   1.465       .  S
C42        C1065   1.485       .  S
C43          O44   1.272       .  A
C43         C953   1.488       .  S
O45          C60   1.261       .  A
O45         Al53   1.889   1_655  S
C46          O56   1.254       .  A
C46          O47   1.267       .  A
C46         C937   1.480       .  S
O47         Al49   1.942       .  S
O48          C50   1.254       .  A
O48         Al49   1.862       .  S
Al49         O57   1.877       .  S
Al49         O59   1.957   1_455  S
Al49         O58   1.781       .  S
C50          O63   1.264   1_455  A
C50        C1049   1.472       .  S
O51          C61   1.261       .  A
O51         Al53   1.894       .  S
O52          C65   1.262       .  A
O52         Al62   1.900       .  S
Al53         O66   1.909   1_455  S
Al53         O63   1.929   1_455  S
Al53         O58   1.782       .  S
O54          C61   1.267       .  A
O54         Al62   1.933       .  S
O55          C64   1.268       .  A
O55         Al62   1.953       .  S
O56         Al62   1.866       .  S
O57          C64   1.259       .  A
O58         Al62   1.792       .  S
O59          C60   1.269       .  A
C60         C897   1.495       .  S
C61         C865   1.481       .  S
C64         C921   1.482       .  S
C65          O66   1.264   1_455  A
C65         C881   1.472   1_455  S
O67          C82   1.261       .  A
O67         Al75   1.879       .  S
C68          O78   1.260       .  A
C68          O69   1.267       .  A
C68         C809   1.492       .  S
O69         Al71   1.935       .  S
O70          C72   1.252   1_565  A
O70         Al71   1.872       .  S
Al71         O79   1.874       .  S
Al71         O81   1.951   1_565  S
Al71         O80   1.787       .  S
C72          O85   1.257       .  A
C72         C985   1.467       .  S
O73          C83   1.260   1_545  A
O73         Al75   1.888       .  S
O74          C87   1.268   1_565  A
O74         Al84   1.937       .  S
Al75         O88   1.890       .  S
Al75         O85   1.906       .  S
Al75         O80   1.782   1_545  S
O76          C83   1.266       .  A
O76         Al84   1.925       .  S
O77          C86   1.265       .  A
O77         Al84   1.943       .  S
O78         Al84   1.889       .  S
O79          C86   1.257       .  A
O80         Al84   1.793       .  S
O81          C82   1.271       .  A
C82         C817   1.485       .  S
C83         C841   1.467       .  S
C86         C913   1.489       .  S
C87          O88   1.259       .  A
C87         C849   1.484       .  S
O89         C104   1.267       .  A
O89         Al97   1.917       .  S
C90         O100   1.264       .  A
C90          O91   1.257       .  A
C90         C745   1.480       .  S
O91         Al93   1.878       .  S
O92          C94   1.265       .  A
O92         Al93   1.929       .  S
Al93        O101   1.959       .  S
Al93        O103   1.893       .  S
Al93        O102   1.781       .  S
C94         O107   1.258       .  A
C94         C929   1.469       .  S
O95         C105   1.270   1_545  A
O95         Al97   1.952       .  S
O96         C109   1.265       .  A
O96        Al106   1.942   1_545  S
Al97        O110   1.889       .  S
Al97        O107   1.889   1_545  S
Al97        O102   1.774   1_545  S
O98         C105   1.254       .  A
O98        Al106   1.856       .  S
O99         C108   1.258       .  A
O99        Al106   1.863       .  S
O100       Al106   1.935       .  S
O101        C108   1.271       .  A
O102       Al106   1.776       .  S
O103        C104   1.263   1_565  A
C104       C1113   1.470       .  S
C105        C761   1.461       .  S
C108        C769   1.467       .  S
C109        O110   1.257       .  A
C109        C785   1.485       .  S
O111        C126   1.257       .  A
O111       Al119   1.865       .  S
C112        O122   1.261       .  A
C112        O113   1.273       .  A
C112        C833   1.477       .  S
O113       Al115   1.946       .  S
O114        C116   1.253       .  A
O114       Al115   1.864       .  S
Al115       O123   1.907       .  S
Al115       O125   1.943       .  S
Al115       O124   1.792       .  S
C116        O129   1.263       .  A
C116        C697   1.486       .  S
O117        C127   1.257       .  A
O117       Al119   1.900       .  S
O118        C131   1.266       .  A
O118       Al128   1.895       .  S
Al119       O132   1.935       .  S
Al119       O129   1.937       .  S
Al119       O124   1.787       .  S
O120        C127   1.255       .  A
O120       Al128   1.888       .  S
O121        C130   1.255       .  A
O121       Al128   1.885       .  S
O122       Al128   1.867       .  S
O123        C130   1.256       .  A
O124       Al128   1.789       .  S
O125        C126   1.267       .  A
C126        C705   1.486       .  S
C127        C721   1.472       .  S
C130        C777   1.480       .  S
C131        O132   1.272       .  A
C131       C1017   1.477       .  S
O133        C148   1.263       .  A
O133       Al141   1.909   1_565  S
C134        O144   1.254       .  A
C134        O135   1.259       .  A
C134        C673   1.479       .  S
O135       Al137   1.916       .  S
O136        C138   1.255       .  A
O136       Al137   1.868       .  S
Al137       O145   1.863       .  S
Al137       O147   1.919       .  S
Al137       O146   1.780       .  S
C138        O151   1.270       .  A
C138        C753   1.464       .  S
O139        C149   1.260       .  A
O139       Al141   1.890       .  S
O140        C153   1.264       .  A
O140       Al150   1.908       .  S
Al141       O154   1.922   1_545  S
Al141       O151   1.946       .  S
Al141       O146   1.782       .  S
O142        C149   1.266       .  A
O142       Al150   1.922       .  S
O143        C152   1.273       .  A
O143       Al150   1.962       .  S
O144       Al150   1.890       .  S
O145        C152   1.258       .  A
O146       Al150   1.783       .  S
O147        C148   1.262   1_545  A
C148        C641   1.486       .  S
C149       C1025   1.472       .  S
C152        C665   1.473       .  S
C153        O154   1.266   1_545  A
C153        C905   1.490   1_545  S
O155        C170   1.268       .  A
O155       Al163   1.927       .  S
C156        O166   1.262       .  A
C156        O157   1.261       .  A
C156        C993   1.480       .  S
O157       Al159   1.914       .  S
O158        C160   1.257       .  A
O158       Al159   1.883       .  S
Al159       O167   1.881       .  S
Al159       O169   1.899       .  S
Al159       O168   1.788       .  S
C160        O173   1.259       .  A
C160        C729   1.464       .  S
O161        C171   1.263       .  A
O161       Al163   1.929       .  S
O162        C175   1.270       .  A
O162       Al172   1.924       .  S
Al163       O176   1.906       .  S
Al163       O173   1.896       .  S
Al163       O168   1.784       .  S
O164        C171   1.260       .  A
O164       Al172   1.902       .  S
O165        C174   1.264       .  A
O165       Al172   1.932       .  S
O166       Al172   1.904       .  S
O167        C174   1.257       .  A
O168       Al172   1.789       .  S
O169        C170   1.261       .  A
C170        C857   1.491       .  S
C171        C609   1.487       .  S
C174        C657   1.480       .  S
C175        O176   1.265       .  A
C175        C633   1.485       .  S
O177        C192   1.262       .  A
O177       Al185   1.907       .  S
C178        O188   1.259       .  A
C178        O179   1.262       .  A
C178        C585   1.472       .  S
O179       Al181   1.916       .  S
O180        C182   1.260       .  A
O180       Al181   1.890       .  S
Al181       O189   1.905       .  S
Al181       O191   1.910       .  S
Al181       O190   1.783       .  S
C182        O195   1.265       .  A
C182        C681   1.479       .  S
O183        C193   1.261       .  A
O183       Al185   1.913       .  S
O184        C197   1.268       .  A
O184       Al194   1.914       .  S
Al185       O198   1.916       .  S
Al185       O195   1.929       .  S
Al185       O190   1.783       .  S
O186        C193   1.255       .  A
O186       Al194   1.870       .  S
O187        C196   1.260       .  A
O187       Al194   1.901       .  S
O188       Al194   1.893       .  S
O189        C196   1.262       .  A
O190       Al194   1.787       .  S
O191        C192   1.262       .  A
C192        C793   1.486       .  S
C193        C553   1.471       .  S
C196        C561   1.467       .  S
C197        O198   1.267       .  A
C197        C593   1.484       .  S
O199        C214   1.260       .  A
O199       Al207   1.880       .  S
C200        O210   1.256       .  A
C200        O201   1.268       .  A
C200        C617   1.477       .  S
O201       Al203   1.943       .  S
O202        C204   1.256       .  A
O202       Al203   1.887       .  S
Al203       O211   1.904       .  S
Al203       O213   1.944       .  S
Al203       O212   1.787       .  S
C204        O217   1.262       .  A
C204        C513   1.485       .  S
O205        C215   1.261       .  A
O205       Al207   1.894       .  S
O206        C219   1.263       .  A
O206       Al216   1.907       .  S
Al207       O220   1.913       .  S
Al207       O217   1.932       .  S
Al207       O212   1.785       .  S
O208        C215   1.259       .  A
O208       Al216   1.891       .  S
O209        C218   1.257       .  A
O209       Al216   1.892       .  S
O210       Al216   1.872       .  S
O211        C218   1.258       .  A
O212       Al216   1.793       .  S
O213        C214   1.269       .  A
C214        C529   1.488       .  S
C215        C505   1.466       .  S
C218        C569   1.464       .  S
C219        O220   1.264       .  A
C219        C713   1.477       .  S
O221        C236   1.264       .  A
O221       Al229   1.906       .  S
C222        O232   1.262       .  A
C222        O223   1.266       .  A
C222        C689   1.485       .  S
O223       Al225   1.930       .  S
O224        C226   1.254       .  A
O224       Al225   1.862       .  S
Al225       O233   1.879       .  S
Al225       O235   1.919       .  S
Al225       O234   1.783       .  S
C226        O239   1.262       .  A
C226        C497   1.471       .  S
O227        C237   1.261       .  A
O227       Al229   1.916       .  S
O228        C241   1.268       .  A
O228       Al238   1.913       .  S
Al229       O242   1.919       .  S
Al229       O239   1.918       .  S
Al229       O234   1.782       .  S
O230        C237   1.258       .  A
O230       Al238   1.896       .  S
O231        C240   1.261       .  A
O231       Al238   1.918       .  S
O232       Al238   1.890       .  S
O233        C240   1.258       .  A
O234       Al238   1.791       .  S
O235        C236   1.263       .  A
C236        C625   1.490       .  S
C237        C449   1.477       .  S
C240        C481   1.474       .  S
C241        O242   1.268       .  A
C241        C473   1.480       .  S
O243        C258   1.262       .  A
O243       Al251   1.887       .  S
C244        O254   1.260       .  A
C244        O245   1.267       .  A
C244        C441   1.485       .  S
O245       Al247   1.932       .  S
O246        C248   1.252       .  A
O246       Al247   1.866       .  S
Al247       O255   1.863       .  S
Al247       O257   1.933       .  S
Al247       O256   1.780       .  S
C248        O261   1.260       .  A
C248        C545   1.467       .  S
O249        C259   1.261       .  A
O249       Al251   1.901       .  S
O250        C263   1.268       .  A
O250       Al260   1.923       .  S
Al251       O264   1.900       .  S
Al251       O261   1.910       .  S
Al251       O256   1.776       .  S
O252        C259   1.264       .  A
O252       Al260   1.912       .  S
O253        C262   1.263       .  A
O253       Al260   1.934       .  S
O254       Al260   1.884       .  S
O255        C262   1.253       .  A
O256       Al260   1.791       .  S
O257        C258   1.267       .  A
C258        C417   1.485       .  S
C259        C737   1.472       .  S
C262        C489   1.473       .  S
C263        O264   1.263       .  A
C263        C649   1.473       .  S
O265        C280   1.261       .  A
O265       Al273   1.896       .  S
C266        O276   1.260       .  A
C266        O267   1.258       .  A
C266        C873   1.489       .  S
O267       Al269   1.900       .  S
O268        C270   1.264       .  A
O268       Al269   1.918       .  S
Al269       O277   1.953       .  S
Al269       O279   1.931       .  S
Al269       O278   1.792       .  S
C270        O283   1.262       .  A
C270        C433   1.473       .  S
O271        C281   1.262       .  A
O271       Al273   1.919       .  S
O272        C285   1.261       .  A
O272       Al282   1.902       .  S
Al273       O286   1.908       .  S
Al273       O283   1.903       .  S
Al273       O278   1.787       .  S
O274        C281   1.258       .  A
O274       Al282   1.883       .  S
O275        C284   1.255       .  A
O275       Al282   1.873       .  S
O276       Al282   1.913       .  S
O277        C284   1.268       .  A
O278       Al282   1.788       .  S
O279        C280   1.266       .  A
C280        C601   1.487       .  S
C281        C393   1.476       .  S
C284        C401   1.474       .  S
C285        O286   1.264       .  A
C285       C1089   1.480       .  S
O287        C302   1.264   1_655  A
O287       Al295   1.898   1_655  S
C288        O298   1.255       .  A
C288        O289   1.266       .  A
C288        C457   1.474       .  S
O289       Al291   1.934       .  S
O290        C292   1.259       .  A
O290       Al291   1.914       .  S
Al291       O299   1.932       .  S
Al291       O301   1.942       .  S
Al291       O300   1.793       .  S
C292        O305   1.259       .  A
C292        C801   1.491       .  S
O293        C303   1.262       .  A
O293       Al295   1.907       .  S
O294        C307   1.262   1_455  A
O294       Al304   1.904       .  S
Al295       O308   1.911   1_455  S
Al295       O305   1.912       .  S
Al295       O300   1.792       .  S
O296        C303   1.258       .  A
O296       Al304   1.884       .  S
O297        C306   1.256       .  A
O297       Al304   1.885       .  S
O298       Al304   1.869       .  S
O299        C306   1.264       .  A
O300       Al304   1.798       .  S
O301        C302   1.271       .  A
C302        C945   1.496   1_455  S
C303        C369   1.469       .  S
C306        C409   1.489       .  S
C307        O308   1.263       .  A
C307        C537   1.478       .  S
O309        C324   1.260       .  A
O309       Al317   1.885       .  S
C310        O320   1.257       .  A
C310        O311   1.265       .  A
C310        C521   1.487       .  S
O311       Al313   1.938       .  S
O312        C314   1.253       .  A
O312       Al313   1.861       .  S
Al313       O321   1.873       .  S
Al313       O323   1.952   1_655  S
Al313       O322   1.789       .  S
C314        O327   1.263   1_655  A
C314        C377   1.469       .  S
O315        C325   1.259       .  A
O315       Al317   1.889   1_655  S
O316        C329   1.262       .  A
O316       Al326   1.906       .  S
Al317       O330   1.908       .  S
Al317       O327   1.927       .  S
Al317       O322   1.783   1_455  S
O318        C325   1.264       .  A
O318       Al326   1.922       .  S
O319        C328   1.265       .  A
O319       Al326   1.931       .  S
O320       Al326   1.875       .  S
O321        C328   1.259       .  A
O322       Al326   1.790       .  S
O323        C324   1.268       .  A
C324        C465   1.491       .  S
C325        C969   1.473       .  S
C328        C353   1.477       .  S
C329        O330   1.262   1_655  A
C329        C825   1.477   1_655  S
O331        C346   1.259       .  A
O331       Al339   1.876       .  S
C332        O342   1.254       .  A
C332        O333   1.266       .  A
C332       C1073   1.487       .  S
O333       Al335   1.939       .  S
O334        C336   1.254       .  A
O334       Al335   1.872       .  S
Al335       O343   1.860       .  S
Al335       O345   1.951       .  S
Al335       O344   1.781       .  S
C336        O349   1.264       .  A
C336        C385   1.476       .  S
O337        C347   1.260       .  A
O337       Al339   1.879       .  S
O338        C351   1.262       .  A
O338       Al348   1.911       .  S
Al339       O352   1.903       .  S
Al339       O349   1.933       .  S
Al339       O344   1.777       .  S
O340        C347   1.269       .  A
O340       Al348   1.930       .  S
O341        C350   1.267       .  A
O341       Al348   1.945       .  S
O342       Al348   1.867       .  S
O343        C350   1.255       .  A
O344       Al348   1.787       .  S
O345        C346   1.270       .  A
C346        C889   1.482       .  S
C347        C577   1.468       .  S
C350        C361   1.471       .  S
C351        O352   1.261       .  A
C351        C425   1.478       .  S
C353        C354   1.405       .  A
C353        C358   1.403       .  A
C354        C355   1.403       .  A
C354        H363   1.083       .  S
C355        C356   1.405       .  A
C355        H364   1.083       .  S
C356        C362   1.409       .  A
C356        C357   1.415       .  A
C357        C359   1.398       .  A
C357        C358   1.397       .  A
C358        H365   1.085       .  S
C359        C360   1.390       .  A
C359        H366   1.084       .  S
C360        C361   1.404       .  A
C360        H367   1.084       .  S
C361        C362   1.406       .  A
C362        H368   1.084       .  S
C369        C370   1.402   1_455  A
C369        C374   1.407       .  A
C370        C371   1.397       .  A
C370        H379   1.083       .  S
C371        C372   1.404       .  A
C371        H380   1.084       .  S
C372        C378   1.396       .  A
C372        C373   1.411   1_655  A
C373        C375   1.404       .  A
C373        C374   1.396       .  A
C374        H381   1.085       .  S
C375        C376   1.397       .  A
C375        H382   1.084       .  S
C376        C377   1.402   1_455  A
C376        H383   1.083       .  S
C377        C378   1.407       .  A
C378        H384   1.085       .  S
C385        C386   1.404       .  A
C385        C390   1.408       .  A
C386        C387   1.397   1_554  A
C386        H395   1.083       .  S
C387        C388   1.403   1_655  A
C387        H396   1.084       .  S
C388        C394   1.400       .  A
C388        C389   1.412   1_556  A
C389        C391   1.402       .  A
C389        C390   1.399   1_455  A
C390        H397   1.084       .  S
C391        C392   1.396   1_554  A
C391        H398   1.084       .  S
C392        C393   1.405       .  A
C392        H399   1.083       .  S
C393        C394   1.407       .  A
C394        H400   1.084       .  S
C401        C402   1.402       .  A
C401        C406   1.408       .  A
C402        C403   1.396       .  A
C402        H411   1.084       .  S
C403        C404   1.403       .  A
C403        H412   1.084       .  S
C404        C410   1.403       .  A
C404        C405   1.413       .  A
C405        C407   1.408       .  A
C405        C406   1.413       .  A
C406        H413   1.084       .  S
C407        C408   1.406       .  A
C407        H414   1.083       .  S
C408        C409   1.405       .  A
C408        H415   1.083       .  S
C409        C410   1.410       .  A
C410        H416   1.084       .  S
C417        C418   1.407       .  A
C417        C422   1.411       .  A
C418        C419   1.393       .  A
C418        H427   1.083       .  S
C419        C420   1.399       .  A
C419        H428   1.084       .  S
C420        C426   1.400       .  A
C420        C421   1.413       .  A
C421        C423   1.406       .  A
C421        C422   1.410       .  A
C422        H429   1.084       .  S
C423        C424   1.404       .  A
C423        H430   1.083       .  S
C424        C425   1.405       .  A
C424        H431   1.083       .  S
C425        C426   1.404       .  A
C426        H432   1.085       .  S
C433        C434   1.402       .  A
C433        C438   1.403       .  A
C434        C435   1.402   1_556  A
C434        H443   1.083       .  S
C435        C436   1.406       .  A
C435        H444   1.084       .  S
C436        C442   1.409       .  A
C436        C437   1.414       .  A
C437        C439   1.401       .  A
C437        C438   1.405   1_554  A
C438        H445   1.084       .  S
C439        C440   1.397       .  A
C439        H446   1.084       .  S
C440        C441   1.408       .  A
C440        H447   1.083       .  S
C441        C442   1.410       .  A
C442        H448   1.084       .  S
C449        C450   1.407       .  A
C449        C454   1.404       .  A
C450        C451   1.395       .  A
C450        H459   1.083       .  S
C451        C452   1.400       .  A
C451        H460   1.084       .  S
C452        C458   1.405       .  A
C452        C453   1.417       .  A
C453        C455   1.402       .  A
C453        C454   1.409       .  A
C454        H461   1.084       .  S
C455        C456   1.399       .  A
C455        H462   1.084       .  S
C456        C457   1.406       .  A
C456        H463   1.083       .  S
C457        C458   1.402       .  A
C458        H464   1.085       .  S
C465        C466   1.409       .  A
C465        C470   1.412       .  A
C466        C467   1.395       .  A
C466        H475   1.083       .  S
C467        C468   1.399       .  A
C467        H476   1.084       .  S
C468        C474   1.405       .  A
C468        C469   1.414       .  A
C469        C471   1.406       .  A
C469        C470   1.413       .  A
C470        H477   1.084       .  S
C471        C472   1.404       .  A
C471        H478   1.083       .  S
C472        C473   1.405       .  A
C472        H479   1.083       .  S
C473        C474   1.405       .  A
C474        H480   1.085       .  S
C481        C482   1.406       .  A
C481        C486   1.402       .  A
C482        C483   1.401       .  A
C482        H491   1.083       .  S
C483        C484   1.404       .  A
C483        H492   1.083       .  S
C484        C490   1.406       .  A
C484        C485   1.414       .  A
C485        C487   1.397       .  A
C485        C486   1.396       .  A
C486        H493   1.085       .  S
C487        C488   1.389       .  A
C487        H494   1.084       .  S
C488        C489   1.406       .  A
C488        H495   1.083       .  S
C489        C490   1.406       .  A
C490        H496   1.084       .  S
C497        C498   1.404       .  A
C497        C502   1.406       .  A
C498        C499   1.396       .  A
C498        H507   1.083       .  S
C499        C500   1.403       .  A
C499        H508   1.084       .  S
C500        C506   1.397       .  A
C500        C501   1.412       .  A
C501        C503   1.402       .  A
C501        C502   1.395       .  A
C502        H509   1.084       .  S
C503        C504   1.394       .  A
C503        H510   1.084       .  S
C504        C505   1.402       .  A
C504        H511   1.083       .  S
C505        C506   1.406       .  A
C506        H512   1.085       .  S
C513        C514   1.406       .  A
C513        C518   1.406       .  A
C514        C515   1.404       .  A
C514        H523   1.083       .  S
C515        C516   1.406       .  A
C515        H524   1.083       .  S
C516        C522   1.412       .  A
C516        C517   1.414       .  A
C517        C519   1.399       .  A
C517        C518   1.403       .  A
C518        H525   1.084       .  S
C519        C520   1.394       .  A
C519        H526   1.084       .  S
C520        C521   1.408       .  A
C520        H527   1.083       .  S
C521        C522   1.411       .  A
C522        H528   1.084       .  S
C529        C530   1.409       .  A
C529        C534   1.410       .  A
C530        C531   1.394       .  A
C530        H539   1.083       .  S
C531        C532   1.398       .  A
C531        H540   1.084       .  S
C532        C538   1.403       .  A
C532        C533   1.414       .  A
C533        C535   1.405       .  A
C533        C534   1.411       .  A
C534        H541   1.084       .  S
C535        C536   1.402       .  A
C535        H542   1.083       .  S
C536        C537   1.406       .  A
C536        H543   1.083       .  S
C537        C538   1.403       .  A
C538        H544   1.085       .  S
C545        C546   1.402   1_554  A
C545        C550   1.409       .  A
C546        C547   1.391       .  A
C546        H555   1.083       .  S
C547        C548   1.401       .  A
C547        H556   1.084       .  S
C548        C554   1.391       .  A
C548        C549   1.411   1_556  A
C549        C551   1.406       .  A
C549        C550   1.399       .  A
C550        H557   1.084       .  S
C551        C552   1.400   1_554  A
C551        H558   1.084       .  S
C552        C553   1.403       .  A
C552        H559   1.083       .  S
C553        C554   1.406       .  A
C554        H560   1.085       .  S
C561        C562   1.400       .  A
C561        C566   1.406       .  A
C562        C563   1.396       .  A
C562        H571   1.083       .  S
C563        C564   1.403       .  A
C563        H572   1.084       .  S
C564        C570   1.398       .  A
C564        C565   1.413       .  A
C565        C567   1.405       .  A
C565        C566   1.400       .  A
C566        H573   1.085       .  S
C567        C568   1.399       .  A
C567        H574   1.084       .  S
C568        C569   1.401       .  A
C568        H575   1.083       .  S
C569        C570   1.402       .  A
C570        H576   1.085       .  S
C577        C578   1.404   1_554  A
C577        C582   1.402       .  A
C578        C579   1.396       .  A
C578        H587   1.083       .  S
C579        C580   1.401       .  A
C579        H588   1.084       .  S
C580        C586   1.404       .  A
C580        C581   1.416       .  A
C581        C583   1.400       .  A
C581        C582   1.403   1_556  A
C582        H589   1.085       .  S
C583        C584   1.396       .  A
C583        H590   1.084       .  S
C584        C585   1.405       .  A
C584        H591   1.083       .  S
C585        C586   1.403       .  A
C586        H592   1.084       .  S
C593        C594   1.407       .  A
C593        C598   1.404       .  A
C594        C595   1.405       .  A
C594        H603   1.083       .  S
C595        C596   1.406       .  A
C595        H604   1.083       .  S
C596        C602   1.416       .  A
C596        C597   1.415       .  A
C597        C599   1.398       .  A
C597        C598   1.405       .  A
C598        H605   1.085       .  S
C599        C600   1.394       .  A
C599        H606   1.084       .  S
C600        C601   1.407       .  A
C600        H607   1.084       .  S
C601        C602   1.410       .  A
C602        H608   1.084       .  S
C609        C610   1.408       .  A
C609        C614   1.408       .  A
C610        C611   1.395       .  A
C610        H619   1.083       .  S
C611        C612   1.399       .  A
C611        H620   1.084       .  S
C612        C618   1.407       .  A
C612        C613   1.417       .  A
C613        C615   1.404       .  A
C613        C614   1.414       .  A
C614        H621   1.084       .  S
C615        C616   1.402       .  A
C615        H622   1.083       .  S
C616        C617   1.406       .  A
C616        H623   1.083       .  S
C617        C618   1.402       .  A
C618        H624   1.084       .  S
C625        C626   1.406       .  A
C625        C630   1.413       .  A
C626        C627   1.398       .  A
C626        H635   1.083       .  S
C627        C628   1.402       .  A
C627        H636   1.084       .  S
C628        C634   1.405       .  A
C628        C629   1.412       .  A
C629        C631   1.407       .  A
C629        C630   1.410       .  A
C630        H637   1.084       .  S
C631        C632   1.404       .  A
C631        H638   1.083       .  S
C632        C633   1.404       .  A
C632        H639   1.083       .  S
C633        C634   1.409       .  A
C634        H640   1.085       .  S
C641        C642   1.409       .  A
C641        C646   1.405       .  A
C642        C643   1.399       .  A
C642        H651   1.083       .  S
C643        C644   1.401       .  A
C643        H652   1.084       .  S
C644        C650   1.410       .  A
C644        C645   1.416       .  A
C645        C647   1.400       .  A
C645        C646   1.406       .  A
C646        H653   1.084       .  S
C647        C648   1.395       .  A
C647        H654   1.084       .  S
C648        C649   1.405       .  A
C648        H655   1.084       .  S
C649        C650   1.404       .  A
C650        H656   1.084       .  S
C657        C658   1.405       .  A
C657        C662   1.406       .  A
C658        C659   1.402       .  A
C658        H667   1.083       .  S
C659        C660   1.405       .  A
C659        H668   1.083       .  S
C660        C666   1.410       .  A
C660        C661   1.415       .  A
C661        C663   1.400       .  A
C661        C662   1.402       .  A
C662        H669   1.085       .  S
C663        C664   1.394       .  A
C663        H670   1.084       .  S
C664        C665   1.405       .  A
C664        H671   1.084       .  S
C665        C666   1.405       .  A
C666        H672   1.084       .  S
C673        C674   1.405       .  A
C673        C678   1.408       .  A
C674        C675   1.398       .  A
C674        H683   1.083       .  S
C675        C676   1.403       .  A
C675        H684   1.084       .  S
C676        C682   1.403   1_554  A
C676        C677   1.413       .  A
C677        C679   1.404       .  A
C677        C678   1.405       .  A
C678        H685   1.084       .  S
C679        C680   1.399   1_554  A
C679        H686   1.084       .  S
C680        C681   1.405       .  A
C680        H687   1.083       .  S
C681        C682   1.406       .  A
C682        H688   1.083       .  S
C689        C690   1.408       .  A
C689        C694   1.405       .  A
C690        C691   1.404       .  A
C690        H699   1.083       .  S
C691        C692   1.405       .  A
C691        H700   1.083       .  S
C692        C698   1.413       .  A
C692        C693   1.415       .  A
C693        C695   1.397       .  A
C693        C694   1.401       .  A
C694        H701   1.084       .  S
C695        C696   1.391       .  A
C695        H702   1.084       .  S
C696        C697   1.408       .  A
C696        H703   1.082       .  S
C697        C698   1.409       .  A
C698        H704   1.084       .  S
C705        C706   1.409       .  A
C705        C710   1.409       .  A
C706        C707   1.392       .  A
C706        H715   1.083       .  S
C707        C708   1.397       .  A
C707        H716   1.084       .  S
C708        C714   1.403       .  A
C708        C709   1.416       .  A
C709        C711   1.405       .  A
C709        C710   1.413       .  A
C710        H717   1.084       .  S
C711        C712   1.404       .  A
C711        H718   1.083       .  S
C712        C713   1.406       .  A
C712        H719   1.083       .  S
C713        C714   1.402       .  A
C714        H720   1.085       .  S
C721        C722   1.404       .  A
C721        C726   1.406       .  A
C722        C723   1.397       .  A
C722        H731   1.083       .  S
C723        C724   1.403   1_565  A
C723        H732   1.084       .  S
C724        C730   1.399       .  A
C724        C725   1.413       .  A
C725        C727   1.402       .  A
C725        C726   1.395   1_545  A
C726        H733   1.084   1_565  S
C727        C728   1.393       .  A
C727        H734   1.084       .  S
C728        C729   1.402       .  A
C728        H735   1.083       .  S
C729        C730   1.404       .  A
C730        H736   1.085       .  S
C737        C738   1.404       .  A
C737        C742   1.405   1_554  A
C738        C739   1.393   1_554  A
C738        H747   1.084       .  S
C739        C740   1.400       .  A
C739        H748   1.084       .  S
C740        C746   1.399       .  A
C740        C741   1.414       .  A
C741        C743   1.404       .  A
C741        C742   1.407       .  A
C742        H749   1.084       .  S
C743        C744   1.401       .  A
C743        H750   1.083       .  S
C744        C745   1.406       .  A
C744        H751   1.083       .  S
C745        C746   1.406       .  A
C746        H752   1.084       .  S
C753        C754   1.405       .  A
C753        C758   1.399   1_545  A
C754        C755   1.395   1_554  A
C754        H763   1.084       .  S
C755        C756   1.401       .  A
C755        H764   1.084       .  S
C756        C762   1.402       .  A
C756        C757   1.417   1_545  A
C757        C759   1.399       .  A
C757        C758   1.399   1_556  A
C758        H765   1.085       .  S
C759        C760   1.392       .  A
C759        H766   1.084   1_556  S
C760        C761   1.404       .  A
C760        H767   1.084       .  S
C761        C762   1.400   1_565  A
C762        H768   1.085       .  S
C769        C770   1.402       .  A
C769        C774   1.407       .  A
C770        C771   1.390       .  A
C770        H779   1.084       .  S
C771        C772   1.399       .  A
C771        H780   1.084       .  S
C772        C778   1.396       .  A
C772        C773   1.414       .  A
C773        C775   1.406       .  A
C773        C774   1.409       .  A
C774        H781   1.084       .  S
C775        C776   1.404       .  A
C775        H782   1.083       .  S
C776        C777   1.406       .  A
C776        H783   1.083       .  S
C777        C778   1.405       .  A
C778        H784   1.084       .  S
C785        C786   1.408       .  A
C785        C790   1.407       .  A
C786        C787   1.398       .  A
C786        H795   1.083       .  S
C787        C788   1.401       .  A
C787        H796   1.084       .  S
C788        C794   1.407       .  A
C788        C789   1.414       .  A
C789        C791   1.401       .  A
C789        C790   1.407       .  A
C790        H797   1.084       .  S
C791        C792   1.398       .  A
C791        H798   1.084       .  S
C792        C793   1.408       .  A
C792        H799   1.083       .  S
C793        C794   1.407       .  A
C794        H800   1.084       .  S
C801        C802   1.408       .  A
C801        C806   1.409       .  A
C802        C803   1.400       .  A
C802        H811   1.083       .  S
C803        C804   1.403       .  A
C803        H812   1.084       .  S
C804        C810   1.412       .  A
C804        C805   1.415       .  A
C805        C807   1.402       .  A
C805        C806   1.411       .  A
C806        H813   1.084       .  S
C807        C808   1.400       .  A
C807        H814   1.084       .  S
C808        C809   1.409       .  A
C808        H815   1.083       .  S
C809        C810   1.410       .  A
C810        H816   1.084       .  S
C817        C818   1.408       .  A
C817        C822   1.410       .  A
C818        C819   1.394       .  A
C818        H827   1.083       .  S
C819        C820   1.399       .  A
C819        H828   1.084       .  S
C820        C826   1.403       .  A
C820        C821   1.414       .  A
C821        C823   1.405   1_455  A
C821        C822   1.410       .  A
C822        H829   1.084       .  S
C823        C824   1.402       .  A
C823        H830   1.083       .  S
C824        C825   1.404   1_655  A
C824        H831   1.083       .  S
C825        C826   1.404       .  A
C826        H832   1.085       .  S
C833        C834   1.404       .  A
C833        C838   1.407       .  A
C834        C835   1.400       .  A
C834        H843   1.083       .  S
C835        C836   1.404       .  A
C835        H844   1.084       .  S
C836        C842   1.404       .  A
C836        C837   1.414       .  A
C837        C839   1.403       .  A
C837        C838   1.401       .  A
C838        H845   1.085       .  S
C839        C840   1.397       .  A
C839        H846   1.084   1_565  S
C840        C841   1.401       .  A
C840        H847   1.083   1_565  S
C841        C842   1.404       .  A
C842        H848   1.085       .  S
C849        C850   1.408       .  A
C849        C854   1.405       .  A
C850        C851   1.396       .  A
C850        H859   1.084       .  S
C851        C852   1.399       .  A
C851        H860   1.084       .  S
C852        C858   1.410       .  A
C852        C853   1.417       .  A
C853        C855   1.400       .  A
C853        C854   1.413       .  A
C854        H861   1.084       .  S
C855        C856   1.399       .  A
C855        H862   1.084       .  S
C856        C857   1.411       .  A
C856        H863   1.083       .  S
C857        C858   1.406       .  A
C858        H864   1.084       .  S
C865        C866   1.405   1_554  A
C865        C870   1.407       .  A
C866        C867   1.400       .  A
C866        H875   1.083       .  S
C867        C868   1.404       .  A
C867        H876   1.084       .  S
C868        C874   1.408       .  A
C868        C869   1.414       .  A
C869        C871   1.403       .  A
C869        C870   1.409   1_556  A
C870        H877   1.084       .  S
C871        C872   1.400       .  A
C871        H878   1.084       .  S
C872        C873   1.407       .  A
C872        H879   1.083       .  S
C873        C874   1.410       .  A
C874        H880   1.084       .  S
C881        C882   1.404   1_655  A
C881        C886   1.402       .  A
C882        C883   1.401       .  A
C882        H891   1.083       .  S
C883        C884   1.404   1_455  A
C883        H892   1.083       .  S
C884        C890   1.408       .  A
C884        C885   1.415       .  A
C885        C887   1.398       .  A
C885        C886   1.402       .  A
C886        H893   1.085       .  S
C887        C888   1.393       .  A
C887        H894   1.084       .  S
C888        C889   1.408       .  A
C888        H895   1.083       .  S
C889        C890   1.408       .  A
C890        H896   1.084       .  S
C897        C898   1.409       .  A
C897        C902   1.413       .  A
C898        C899   1.396       .  A
C898        H907   1.083       .  S
C899        C900   1.399       .  A
C899        H908   1.084       .  S
C900        C906   1.408       .  A
C900        C901   1.414       .  A
C901        C903   1.405   1_565  A
C901        C902   1.416       .  A
C902        H909   1.084       .  S
C903        C904   1.405       .  A
C903        H910   1.083       .  S
C904        C905   1.408   1_545  A
C904        H911   1.083       .  S
C905        C906   1.406       .  A
C906        H912   1.084       .  S
C913        C914   1.407       .  A
C913        C918   1.407       .  A
C914        C915   1.409       .  A
C914        H923   1.083       .  S
C915        C916   1.409       .  A
C915        H924   1.083       .  S
C916        C922   1.416       .  A
C916        C917   1.413       .  A
C917        C919   1.399       .  A
C917        C918   1.400       .  A
C918        H925   1.084       .  S
C919        C920   1.391       .  A
C919        H926   1.084       .  S
C920        C921   1.404       .  A
C920        H927   1.084       .  S
C921        C922   1.412       .  A
C922        H928   1.084       .  S
C929        C930   1.402       .  A
C929        C934   1.401       .  A
C930        C931   1.398   1_556  A
C930        H939   1.084   1_565  S
C931        C932   1.403       .  A
C931        H940   1.084       .  S
C932        C938   1.408       .  A
C932        C933   1.417       .  A
C933        C935   1.400       .  A
C933        C934   1.407   1_554  A
C934        H941   1.085       .  S
C935        C936   1.397       .  A
C935        H942   1.084       .  S
C936        C937   1.407       .  A
C936        H943   1.083       .  S
C937        C938   1.406       .  A
C938        H944   1.084       .  S
C945        C946   1.408   1_655  A
C945        C950   1.411       .  A
C946        C947   1.404   1_455  A
C946        H955   1.083       .  S
C947        C948   1.405       .  A
C947        H956   1.083   1_655  S
C948        C954   1.415       .  A
C948        C949   1.414       .  A
C949        C951   1.402       .  A
C949        C950   1.410       .  A
C950        H957   1.084       .  S
C951        C952   1.399       .  A
C951        H958   1.084       .  S
C952        C953   1.406       .  A
C952        H959   1.084       .  S
C953        C954   1.410       .  A
C954        H960   1.084       .  S
C961        C962   1.406       .  A
C961        C966   1.406       .  A
C962        C963   1.399       .  A
C962        H971   1.083       .  S
C963        C964   1.403       .  A
C963        H972   1.084       .  S
C964        C970   1.406       .  A
C964        C965   1.415       .  A
C965        C967   1.402       .  A
C965        C966   1.404       .  A
C966        H973   1.084       .  S
C967        C968   1.397       .  A
C967        H974   1.084       .  S
C968        C969   1.403       .  A
C968        H975   1.083   1_655  S
C969        C970   1.405       .  A
C970        H976   1.085       .  S
C977        C978   1.402   1_545  A
C977        C982   1.403       .  A
C978        C979   1.397       .  A
C978        H987   1.083       .  S
C979        C980   1.404   1_565  A
C979        H988   1.084       .  S
C980        C986   1.398   1_645  A
C980        C981   1.413   1_655  A
C981        C983   1.401       .  A
C981        C982   1.395   1_455  A
C982        H989   1.085       .  S
C983        C984   1.393       .  A
C983        H990   1.084       .  S
C984        C985   1.402       .  A
C984        H991   1.083       .  S
C985        C986   1.405   1_545  A
C986        H992   1.084       .  S
C993        C994   1.406       .  A
C993        C998   1.405       .  A
C994        C995   1.400       .  A
C994       H1003   1.083       .  S
C995        C996   1.403       .  A
C995       H1004   1.083       .  S
C996       C1002   1.409       .  A
C996        C997   1.415       .  A
C997        C999   1.399       .  A
C997        C998   1.404       .  A
C998       H1005   1.085       .  S
C999       C1000   1.394       .  A
C999       H1006   1.084       .  S
C1000      C1001   1.409       .  A
C1000      H1007   1.083       .  S
C1001      C1002   1.407       .  A
C1002      H1008   1.084       .  S
C1009      C1010   1.408       .  A
C1009      C1014   1.407       .  A
C1010      C1011   1.393       .  A
C1010      H1019   1.084       .  S
C1011      C1012   1.398       .  A
C1011      H1020   1.084       .  S
C1012      C1018   1.404       .  A
C1012      C1013   1.416       .  A
C1013      C1015   1.403       .  A
C1013      C1014   1.411       .  A
C1014      H1021   1.084   1_565  S
C1015      C1016   1.401       .  A
C1015      H1022   1.083   1_565  S
C1016      C1017   1.406       .  A
C1016      H1023   1.083       .  S
C1017      C1018   1.402       .  A
C1018      H1024   1.085       .  S
C1025      C1026   1.403   1_554  A
C1025      C1030   1.402   1_554  A
C1026      C1027   1.400       .  A
C1026      H1035   1.083       .  S
C1027      C1028   1.404       .  A
C1027      H1036   1.083       .  S
C1028      C1034   1.408       .  A
C1028      C1029   1.415       .  A
C1029      C1031   1.399       .  A
C1029      C1030   1.404       .  A
C1030      H1037   1.085   1_556  S
C1031      C1032   1.395       .  A
C1031      H1038   1.084       .  S
C1032      C1033   1.408       .  A
C1032      H1039   1.083       .  S
C1033      C1034   1.408       .  A
C1034      H1040   1.084       .  S
C1041      C1042   1.404   1_655  A
C1041      C1046   1.406       .  A
C1042      C1043   1.392   1_556  A
C1042      H1051   1.083       .  S
C1043      C1044   1.400       .  A
C1043      H1052   1.084       .  S
C1044      C1050   1.394   1_545  A
C1044      C1045   1.412   1_454  A
C1045      C1047   1.403   1_545  A
C1045      C1046   1.399       .  A
C1046      H1053   1.084       .  S
C1047      C1048   1.397   1_556  A
C1047      H1054   1.084       .  S
C1048      C1049   1.404   1_655  A
C1048      H1055   1.083       .  S
C1049      C1050   1.406       .  A
C1050      H1056   1.085       .  S
C1057      C1058   1.402       .  A
C1057      C1062   1.405       .  A
C1058      C1059   1.396       .  A
C1058      H1067   1.084       .  S
C1059      C1060   1.402       .  A
C1059      H1068   1.084       .  S
C1060      C1066   1.403       .  A
C1060      C1061   1.414       .  A
C1061      C1063   1.404       .  A
C1061      C1062   1.408       .  A
C1062      H1069   1.084       .  S
C1063      C1064   1.402       .  A
C1063      H1070   1.083       .  S
C1064      C1065   1.406       .  A
C1064      H1071   1.083       .  S
C1065      C1066   1.408       .  A
C1066      H1072   1.084       .  S
C1073      C1074   1.410       .  A
C1073      C1078   1.408       .  A
C1074      C1075   1.395       .  A
C1074      H1083   1.083       .  S
C1075      C1076   1.399       .  A
C1075      H1084   1.084       .  S
C1076      C1082   1.405   1_554  A
C1076      C1077   1.416       .  A
C1077      C1079   1.404       .  A
C1077      C1078   1.410       .  A
C1078      H1085   1.084       .  S
C1079      C1080   1.401   1_554  A
C1079      H1086   1.083       .  S
C1080      C1081   1.404       .  A
C1080      H1087   1.083   1_655  S
C1081      C1082   1.402       .  A
C1082      H1088   1.085       .  S
C1089      C1090   1.409       .  A
C1089      C1094   1.404       .  A
C1090      C1091   1.395       .  A
C1090      H1099   1.083       .  S
C1091      C1092   1.398       .  A
C1091      H1100   1.084   1_455  S
C1092      C1098   1.404       .  A
C1092      C1093   1.417       .  A
C1093      C1095   1.400       .  A
C1093      C1094   1.404       .  A
C1094      H1101   1.084       .  S
C1095      C1096   1.394       .  A
C1095      H1102   1.084       .  S
C1096      C1097   1.405       .  A
C1096      H1103   1.084       .  S
C1097      C1098   1.400       .  A
C1098      H1104   1.085   1_455  S
C1105      C1106   1.407       .  A
C1105      C1110   1.407       .  A
C1106      C1107   1.394       .  A
C1106      H1115   1.083       .  S
C1107      C1108   1.399       .  A
C1107      H1116   1.084       .  S
C1108      C1114   1.402       .  A
C1108      C1109   1.415       .  A
C1109      C1111   1.403       .  A
C1109      C1110   1.406       .  A
C1110      H1117   1.084       .  S
C1111      C1112   1.399   1_545  A
C1111      H1118   1.084   1_545  S
C1112      C1113   1.404   1_565  A
C1112      H1119   1.083       .  S
C1113      C1114   1.401       .  A
C1114      H1120   1.085       .  S
